MODEL 1
REMARK VINA RESULT:     -13.1      0.000      0.000
REMARK  7 active torsions:
REMARK  status: ('A' for Active; 'I' for Inactive)
REMARK    1  A    between atoms: C5_5  and  C7_7 
REMARK    2  A    between atoms: C9_9  and  N13_13 
REMARK    3  A    between atoms: N13_13  and  C14_14 
REMARK    4  A    between atoms: C16_16  and  N21_21 
REMARK       I    between atoms: N21_21  and  C22_22 
REMARK    5  A    between atoms: C22_22  and  C23_23 
REMARK    6  A    between atoms: C27_26  and  C46_30 
REMARK    7  A    between atoms: C46_30  and  N48_31 
ROOT
HETATM    1  C1  STI   202      16.324 100.355  50.544  1.00  0.00    -0.001 A 
HETATM    2  C2  STI   202      17.281 101.265  51.107  1.00  0.00     0.095 A 
HETATM    3  N3  STI   202      17.106 101.759  52.403  1.00  0.00    -0.243 NA
HETATM    4  C4  STI   202      16.024 101.406  53.203  1.00  0.00     0.097 A 
HETATM    5  C5  STI   202      15.017 100.490  52.701  1.00  0.00     0.020 A 
HETATM    6  C6  STI   202      15.186  99.969  51.349  1.00  0.00     0.057 A 
ENDROOT
BRANCH   5   7
HETATM    7  C7  STI   202      13.855 100.126  53.579  1.00  0.00     0.099 A 
HETATM    8  N8  STI   202      14.025 100.277  54.941  1.00  0.00    -0.061 NA
HETATM    9  C9  STI   202      13.036  99.980  55.830  1.00  0.00     0.728 A 
HETATM   10  N10 STI   202      11.816  99.513  55.371  1.00  0.00    -0.059 NA
HETATM   11  C11 STI   202      11.584  99.341  54.016  1.00  0.00     0.119 A 
HETATM   12  C12 STI   202      12.598  99.643  53.070  1.00  0.00     0.041 A 
BRANCH   9  13
HETATM   13  N13 STI   202      13.301 100.169  57.189  1.00  0.00    -0.190 N 
HETATM   14  H   STI   202      14.289 100.494  57.486  1.00  0.00     0.184 HD
BRANCH  13  15
HETATM   15  C14 STI   202      12.333  99.953  58.185  1.00  0.00     0.052 A 
HETATM   16  C15 STI   202      12.412  98.761  58.970  1.00  0.00     0.087 A 
HETATM   17  C16 STI   202      11.435  98.488  60.026  1.00  0.00     0.042 A 
HETATM   18  C17 STI   202      10.401  99.437  60.252  1.00  0.00     0.013 A 
HETATM   19  C18 STI   202      10.310 100.643  59.468  1.00  0.00    -0.002 A 
HETATM   20  C19 STI   202      11.263 100.925  58.429  1.00  0.00    -0.009 A 
HETATM   21  C20 STI   202      11.103 102.244  57.636  1.00  0.00     0.032 C 
BRANCH  17  22
HETATM   22  N21 STI   202      11.452  97.311  60.864  1.00  0.00    -0.325 N 
HETATM   23  C22 STI   202      12.419  96.329  60.950  1.00  0.00     0.253 C 
HETATM   24  O29 STI   202      13.328  96.183  60.156  1.00  0.00    -0.268 OA
HETATM   25  H   STI   202      10.593  97.183  61.510  1.00  0.00     0.169 HD
BRANCH  23  26
HETATM   26  C23 STI   202      12.362  95.351  62.077  1.00  0.00     0.034 A 
HETATM   27  C25 STI   202      13.570  94.672  62.545  1.00  0.00     0.036 A 
HETATM   28  C26 STI   202      13.484  93.719  63.621  1.00  0.00     0.029 A 
HETATM   29  C27 STI   202      12.195  93.443  64.231  1.00  0.00    -0.011 A 
HETATM   30  C28 STI   202      11.015  94.132  63.753  1.00  0.00    -0.007 A 
HETATM   31  C29 STI   202      11.090  95.067  62.699  1.00  0.00    -0.000 A 
BRANCH  29  32
HETATM   32  C46 STI   202      12.020  92.427  65.364  1.00  0.00     0.273 C 
BRANCH  32  33
HETATM   33  N48 STI   202      10.780  91.595  65.368  1.00  0.00     0.145 N 
HETATM   34  C49 STI   202      10.594  90.870  66.697  1.00  0.00     0.286 C 
HETATM   35  C50 STI   202       9.289  90.015  66.699  1.00  0.00     0.286 C 
HETATM   36  N51 STI   202       9.335  89.024  65.546  1.00  0.00     0.143 N 
HETATM   37  C52 STI   202       9.513  89.739  64.217  1.00  0.00     0.286 C 
HETATM   38  C54 STI   202       8.134  88.172  65.590  1.00  0.00     0.285 C 
HETATM   39  C53 STI   202      10.797  90.609  64.235  1.00  0.00     0.286 C 
ENDBRANCH  32  33
ENDBRANCH  29  32
ENDBRANCH  23  26
ENDBRANCH  17  22
ENDBRANCH  13  15
ENDBRANCH   9  13
ENDBRANCH   5   7
TORSDOF 7
ENDMDL
MODEL 2
REMARK VINA RESULT:     -10.8      2.991     12.419
REMARK  7 active torsions:
REMARK  status: ('A' for Active; 'I' for Inactive)
REMARK    1  A    between atoms: C5_5  and  C7_7 
REMARK    2  A    between atoms: C9_9  and  N13_13 
REMARK    3  A    between atoms: N13_13  and  C14_14 
REMARK    4  A    between atoms: C16_16  and  N21_21 
REMARK       I    between atoms: N21_21  and  C22_22 
REMARK    5  A    between atoms: C22_22  and  C23_23 
REMARK    6  A    between atoms: C27_26  and  C46_30 
REMARK    7  A    between atoms: C46_30  and  N48_31 
ROOT
HETATM    1  C1  STI   202       5.279  93.993  59.799  1.00  0.00    -0.001 A 
HETATM    2  C2  STI   202       4.430  92.901  59.418  1.00  0.00     0.095 A 
HETATM    3  N3  STI   202       4.628  91.630  59.967  1.00  0.00    -0.243 NA
HETATM    4  C4  STI   202       5.632  91.358  60.891  1.00  0.00     0.097 A 
HETATM    5  C5  STI   202       6.528  92.414  61.323  1.00  0.00     0.020 A 
HETATM    6  C6  STI   202       6.334  93.744  60.756  1.00  0.00     0.057 A 
ENDROOT
BRANCH   5   7
HETATM    7  C7  STI   202       7.608  92.097  62.317  1.00  0.00     0.099 A 
HETATM    8  N8  STI   202       8.376  93.152  62.768  1.00  0.00    -0.061 NA
HETATM    9  C9  STI   202       9.379  92.980  63.673  1.00  0.00     0.728 A 
HETATM   10  N10 STI   202       9.651  91.714  64.167  1.00  0.00    -0.059 NA
HETATM   11  C11 STI   202       8.915  90.616  63.753  1.00  0.00     0.119 A 
HETATM   12  C12 STI   202       7.864  90.769  62.812  1.00  0.00     0.041 A 
BRANCH   9  13
HETATM   13  N13 STI   202      10.099  94.109  64.073  1.00  0.00    -0.190 N 
HETATM   14  H   STI   202       9.732  94.692  64.907  1.00  0.00     0.184 HD
BRANCH  13  15
HETATM   15  C14 STI   202      11.283  94.516  63.434  1.00  0.00     0.052 A 
HETATM   16  C15 STI   202      11.184  95.254  62.214  1.00  0.00     0.087 A 
HETATM   17  C16 STI   202      12.383  95.710  61.509  1.00  0.00     0.042 A 
HETATM   18  C17 STI   202      13.654  95.399  62.067  1.00  0.00     0.013 A 
HETATM   19  C18 STI   202      13.768  94.656  63.296  1.00  0.00    -0.002 A 
HETATM   20  C19 STI   202      12.599  94.204  64.000  1.00  0.00    -0.009 A 
HETATM   21  C20 STI   202      12.803  93.418  65.317  1.00  0.00     0.032 C 
BRANCH  17  22
HETATM   22  N21 STI   202      12.364  96.464  60.277  1.00  0.00    -0.325 N 
HETATM   23  C22 STI   202      11.780  97.689  60.025  1.00  0.00     0.253 C 
HETATM   24  O29 STI   202      10.982  98.239  60.761  1.00  0.00    -0.268 OA
HETATM   25  H   STI   202      12.877  96.007  59.440  1.00  0.00     0.169 HD
BRANCH  23  26
HETATM   26  C23 STI   202      12.117  98.408  58.761  1.00  0.00     0.034 A 
HETATM   27  C25 STI   202      13.491  98.818  58.473  1.00  0.00     0.036 A 
HETATM   28  C26 STI   202      13.786  99.528  57.255  1.00  0.00     0.029 A 
HETATM   29  C27 STI   202      12.712  99.829  56.324  1.00  0.00    -0.011 A 
HETATM   30  C28 STI   202      11.361  99.407  56.630  1.00  0.00    -0.007 A 
HETATM   31  C29 STI   202      11.063  98.712  57.821  1.00  0.00    -0.000 A 
BRANCH  29  32
HETATM   32  C46 STI   202      12.942 100.598  55.019  1.00  0.00     0.273 C 
BRANCH  32  33
HETATM   33  N48 STI   202      14.139 100.238  54.201  1.00  0.00     0.145 N 
HETATM   34  C49 STI   202      15.219 101.311  54.284  1.00  0.00     0.286 C 
HETATM   35  C50 STI   202      16.472 100.922  53.440  1.00  0.00     0.286 C 
HETATM   36  N51 STI   202      16.053 100.690  51.996  1.00  0.00     0.143 N 
HETATM   37  C52 STI   202      14.981  99.616  51.904  1.00  0.00     0.286 C 
HETATM   38  C54 STI   202      17.246 100.389  51.186  1.00  0.00     0.285 C 
HETATM   39  C53 STI   202      13.752  99.998  52.770  1.00  0.00     0.286 C 
ENDBRANCH  32  33
ENDBRANCH  29  32
ENDBRANCH  23  26
ENDBRANCH  17  22
ENDBRANCH  13  15
ENDBRANCH   9  13
ENDBRANCH   5   7
TORSDOF 7
ENDMDL
MODEL 3
REMARK VINA RESULT:     -10.7      3.421     12.434
REMARK  7 active torsions:
REMARK  status: ('A' for Active; 'I' for Inactive)
REMARK    1  A    between atoms: C5_5  and  C7_7 
REMARK    2  A    between atoms: C9_9  and  N13_13 
REMARK    3  A    between atoms: N13_13  and  C14_14 
REMARK    4  A    between atoms: C16_16  and  N21_21 
REMARK       I    between atoms: N21_21  and  C22_22 
REMARK    5  A    between atoms: C22_22  and  C23_23 
REMARK    6  A    between atoms: C27_26  and  C46_30 
REMARK    7  A    between atoms: C46_30  and  N48_31 
ROOT
HETATM    1  C1  STI   202       7.205  86.592  60.219  1.00  0.00    -0.001 A 
HETATM    2  C2  STI   202       6.457  86.409  59.007  1.00  0.00     0.095 A 
HETATM    3  N3  STI   202       5.815  87.495  58.405  1.00  0.00    -0.243 NA
HETATM    4  C4  STI   202       5.862  88.783  58.930  1.00  0.00     0.097 A 
HETATM    5  C5  STI   202       6.600  89.043  60.152  1.00  0.00     0.020 A 
HETATM    6  C6  STI   202       7.273  87.918  60.792  1.00  0.00     0.057 A 
ENDROOT
BRANCH   5   7
HETATM    7  C7  STI   202       6.635  90.439  60.704  1.00  0.00     0.099 A 
HETATM    8  N8  STI   202       7.328  90.632  61.882  1.00  0.00    -0.061 NA
HETATM    9  C9  STI   202       7.427  91.857  62.469  1.00  0.00     0.728 A 
HETATM   10  N10 STI   202       6.822  92.954  61.878  1.00  0.00    -0.059 NA
HETATM   11  C11 STI   202       6.113  92.824  60.696  1.00  0.00     0.119 A 
HETATM   12  C12 STI   202       5.995  91.559  60.064  1.00  0.00     0.041 A 
BRANCH   9  13
HETATM   13  N13 STI   202       8.153  91.954  63.659  1.00  0.00    -0.190 N 
HETATM   14  H   STI   202       7.768  91.467  64.544  1.00  0.00     0.184 HD
BRANCH  13  15
HETATM   15  C14 STI   202       9.365  92.662  63.750  1.00  0.00     0.052 A 
HETATM   16  C15 STI   202       9.585  93.761  62.864  1.00  0.00     0.087 A 
HETATM   17  C16 STI   202      10.825  94.538  62.919  1.00  0.00     0.042 A 
HETATM   18  C17 STI   202      11.809  94.171  63.877  1.00  0.00     0.013 A 
HETATM   19  C18 STI   202      11.600  93.065  64.777  1.00  0.00    -0.002 A 
HETATM   20  C19 STI   202      10.387  92.295  64.735  1.00  0.00    -0.009 A 
HETATM   21  C20 STI   202      10.233  91.127  65.738  1.00  0.00     0.032 C 
BRANCH  17  22
HETATM   22  N21 STI   202      11.117  95.663  62.063  1.00  0.00    -0.325 N 
HETATM   23  C22 STI   202      12.288  95.951  61.389  1.00  0.00     0.253 C 
HETATM   24  O29 STI   202      13.355  95.403  61.591  1.00  0.00    -0.268 OA
HETATM   25  H   STI   202      10.312  96.374  61.930  1.00  0.00     0.169 HD
BRANCH  23  26
HETATM   26  C23 STI   202      12.281  97.018  60.344  1.00  0.00     0.034 A 
HETATM   27  C25 STI   202      11.184  97.983  60.263  1.00  0.00     0.036 A 
HETATM   28  C26 STI   202      11.192  98.990  59.233  1.00  0.00     0.029 A 
HETATM   29  C27 STI   202      12.292  99.036  58.286  1.00  0.00    -0.011 A 
HETATM   30  C28 STI   202      13.369  98.073  58.391  1.00  0.00    -0.007 A 
HETATM   31  C29 STI   202      13.369  97.083  59.397  1.00  0.00    -0.000 A 
BRANCH  29  32
HETATM   32  C46 STI   202      12.361 100.063  57.150  1.00  0.00     0.273 C 
BRANCH  32  33
HETATM   33  N48 STI   202      13.060  99.664  55.892  1.00  0.00     0.145 N 
HETATM   34  C49 STI   202      14.385 100.402  55.729  1.00  0.00     0.286 C 
HETATM   35  C50 STI   202      15.118  99.970  54.422  1.00  0.00     0.286 C 
HETATM   36  N51 STI   202      14.209 100.224  53.229  1.00  0.00     0.143 N 
HETATM   37  C52 STI   202      12.888  99.485  53.380  1.00  0.00     0.286 C 
HETATM   38  C54 STI   202      14.926  99.878  51.989  1.00  0.00     0.285 C 
HETATM   39  C53 STI   202      12.182  99.900  54.697  1.00  0.00     0.286 C 
ENDBRANCH  32  33
ENDBRANCH  29  32
ENDBRANCH  23  26
ENDBRANCH  17  22
ENDBRANCH  13  15
ENDBRANCH   9  13
ENDBRANCH   5   7
TORSDOF 7
ENDMDL
MODEL 4
REMARK VINA RESULT:     -10.7      2.357     12.383
REMARK  7 active torsions:
REMARK  status: ('A' for Active; 'I' for Inactive)
REMARK    1  A    between atoms: C5_5  and  C7_7 
REMARK    2  A    between atoms: C9_9  and  N13_13 
REMARK    3  A    between atoms: N13_13  and  C14_14 
REMARK    4  A    between atoms: C16_16  and  N21_21 
REMARK       I    between atoms: N21_21  and  C22_22 
REMARK    5  A    between atoms: C22_22  and  C23_23 
REMARK    6  A    between atoms: C27_26  and  C46_30 
REMARK    7  A    between atoms: C46_30  and  N48_31 
ROOT
HETATM    1  C1  STI   202       6.673  93.497  61.038  1.00  0.00    -0.001 A 
HETATM    2  C2  STI   202       5.878  92.490  60.394  1.00  0.00     0.095 A 
HETATM    3  N3  STI   202       5.999  91.149  60.770  1.00  0.00    -0.243 NA
HETATM    4  C4  STI   202       6.872  90.723  61.766  1.00  0.00     0.097 A 
HETATM    5  C5  STI   202       7.707  91.684  62.461  1.00  0.00     0.020 A 
HETATM    6  C6  STI   202       7.593  93.086  62.077  1.00  0.00     0.057 A 
ENDROOT
BRANCH   5   7
HETATM    7  C7  STI   202       8.646  91.202  63.528  1.00  0.00     0.099 A 
HETATM    8  N8  STI   202       9.612  92.087  63.963  1.00  0.00    -0.061 NA
HETATM    9  C9  STI   202      10.512  91.756  64.930  1.00  0.00     0.728 A 
HETATM   10  N10 STI   202      10.472  90.497  65.506  1.00  0.00    -0.059 NA
HETATM   11  C11 STI   202       9.527  89.565  65.113  1.00  0.00     0.119 A 
HETATM   12  C12 STI   202       8.577  89.885  64.108  1.00  0.00     0.041 A 
BRANCH   9  13
HETATM   13  N13 STI   202      11.450  92.721  65.307  1.00  0.00    -0.190 N 
HETATM   14  H   STI   202      11.344  93.202  66.270  1.00  0.00     0.184 HD
BRANCH  13  15
HETATM   15  C14 STI   202      12.527  93.092  64.483  1.00  0.00     0.052 A 
HETATM   16  C15 STI   202      12.292  94.028  63.428  1.00  0.00     0.087 A 
HETATM   17  C16 STI   202      13.377  94.455  62.543  1.00  0.00     0.042 A 
HETATM   18  C17 STI   202      14.675  93.915  62.757  1.00  0.00     0.013 A 
HETATM   19  C18 STI   202      14.926  92.972  63.818  1.00  0.00    -0.002 A 
HETATM   20  C19 STI   202      13.870  92.544  64.695  1.00  0.00    -0.009 A 
HETATM   21  C20 STI   202      14.220  91.534  65.813  1.00  0.00     0.032 C 
BRANCH  17  22
HETATM   22  N21 STI   202      13.220  95.398  61.461  1.00  0.00    -0.325 N 
HETATM   23  C22 STI   202      12.174  96.268  61.222  1.00  0.00     0.253 C 
HETATM   24  O29 STI   202      11.094  96.220  61.778  1.00  0.00    -0.268 OA
HETATM   25  H   STI   202      14.029  95.428  60.743  1.00  0.00     0.169 HD
BRANCH  23  26
HETATM   26  C23 STI   202      12.344  97.344  60.201  1.00  0.00     0.034 A 
HETATM   27  C25 STI   202      11.424  98.481  60.146  1.00  0.00     0.036 A 
HETATM   28  C26 STI   202      11.600  99.495  59.139  1.00  0.00     0.029 A 
HETATM   29  C27 STI   202      12.691  99.378  58.188  1.00  0.00    -0.011 A 
HETATM   30  C28 STI   202      13.591  98.247  58.266  1.00  0.00    -0.007 A 
HETATM   31  C29 STI   202      13.427  97.248  59.250  1.00  0.00    -0.000 A 
BRANCH  29  32
HETATM   32  C46 STI   202      12.929 100.405  57.075  1.00  0.00     0.273 C 
BRANCH  32  33
HETATM   33  N48 STI   202      13.534  99.920  55.798  1.00  0.00     0.145 N 
HETATM   34  C49 STI   202      14.884 100.576  55.533  1.00  0.00     0.286 C 
HETATM   35  C50 STI   202      15.517 100.054  54.206  1.00  0.00     0.286 C 
HETATM   36  N51 STI   202      14.557 100.312  53.055  1.00  0.00     0.143 N 
HETATM   37  C52 STI   202      13.210  99.655  53.309  1.00  0.00     0.286 C 
HETATM   38  C54 STI   202      15.183  99.880  51.793  1.00  0.00     0.285 C 
HETATM   39  C53 STI   202      12.602 100.158  54.645  1.00  0.00     0.286 C 
ENDBRANCH  32  33
ENDBRANCH  29  32
ENDBRANCH  23  26
ENDBRANCH  17  22
ENDBRANCH  13  15
ENDBRANCH   9  13
ENDBRANCH   5   7
TORSDOF 7
ENDMDL
MODEL 5
REMARK VINA RESULT:     -10.4      2.761     13.886
REMARK  7 active torsions:
REMARK  status: ('A' for Active; 'I' for Inactive)
REMARK    1  A    between atoms: C5_5  and  C7_7 
REMARK    2  A    between atoms: C9_9  and  N13_13 
REMARK    3  A    between atoms: N13_13  and  C14_14 
REMARK    4  A    between atoms: C16_16  and  N21_21 
REMARK       I    between atoms: N21_21  and  C22_22 
REMARK    5  A    between atoms: C22_22  and  C23_23 
REMARK    6  A    between atoms: C27_26  and  C46_30 
REMARK    7  A    between atoms: C46_30  and  N48_31 
ROOT
HETATM    1  C1  STI   202       4.445  89.721  68.913  1.00  0.00    -0.001 A 
HETATM    2  C2  STI   202       5.673  89.382  69.575  1.00  0.00     0.095 A 
HETATM    3  N3  STI   202       6.898  89.797  69.043  1.00  0.00    -0.243 NA
HETATM    4  C4  STI   202       6.995  90.544  67.873  1.00  0.00     0.097 A 
HETATM    5  C5  STI   202       5.796  90.923  67.150  1.00  0.00     0.020 A 
HETATM    6  C6  STI   202       4.512  90.495  67.693  1.00  0.00     0.057 A 
ENDROOT
BRANCH   5   7
HETATM    7  C7  STI   202       5.924  91.725  65.887  1.00  0.00     0.099 A 
HETATM    8  N8  STI   202       7.103  91.598  65.179  1.00  0.00    -0.061 NA
HETATM    9  C9  STI   202       7.324  92.275  64.018  1.00  0.00     0.728 A 
HETATM   10  N10 STI   202       6.348  93.121  63.518  1.00  0.00    -0.059 NA
HETATM   11  C11 STI   202       5.145  93.290  64.182  1.00  0.00     0.119 A 
HETATM   12  C12 STI   202       4.889  92.596  65.393  1.00  0.00     0.041 A 
BRANCH   9  13
HETATM   13  N13 STI   202       8.547  92.079  63.371  1.00  0.00    -0.190 N 
HETATM   14  H   STI   202       8.648  91.243  62.692  1.00  0.00     0.184 HD
BRANCH  13  15
HETATM   15  C14 STI   202       9.652  92.925  63.569  1.00  0.00     0.052 A 
HETATM   16  C15 STI   202       9.890  93.973  62.626  1.00  0.00     0.087 A 
HETATM   17  C16 STI   202      11.021  94.889  62.787  1.00  0.00     0.042 A 
HETATM   18  C17 STI   202      11.881  94.711  63.906  1.00  0.00     0.013 A 
HETATM   19  C18 STI   202      11.651  93.659  64.864  1.00  0.00    -0.002 A 
HETATM   20  C19 STI   202      10.544  92.754  64.720  1.00  0.00    -0.009 A 
HETATM   21  C20 STI   202      10.360  91.655  65.793  1.00  0.00     0.032 C 
BRANCH  17  22
HETATM   22  N21 STI   202      11.324  95.972  61.882  1.00  0.00    -0.325 N 
HETATM   23  C22 STI   202      12.458  96.165  61.117  1.00  0.00     0.253 C 
HETATM   24  O29 STI   202      13.498  95.549  61.256  1.00  0.00    -0.268 OA
HETATM   25  H   STI   202      10.561  96.734  61.789  1.00  0.00     0.169 HD
BRANCH  23  26
HETATM   26  C23 STI   202      12.444  97.206  60.047  1.00  0.00     0.034 A 
HETATM   27  C25 STI   202      11.256  98.026  59.811  1.00  0.00     0.036 A 
HETATM   28  C26 STI   202      11.263  99.010  58.760  1.00  0.00     0.029 A 
HETATM   29  C27 STI   202      12.454  99.179  57.945  1.00  0.00    -0.011 A 
HETATM   30  C28 STI   202      13.619  98.359  58.202  1.00  0.00    -0.007 A 
HETATM   31  C29 STI   202      13.621  97.391  59.230  1.00  0.00    -0.000 A 
BRANCH  29  32
HETATM   32  C46 STI   202      12.530 100.189  56.796  1.00  0.00     0.273 C 
BRANCH  32  33
HETATM   33  N48 STI   202      13.282  99.790  55.568  1.00  0.00     0.145 N 
HETATM   34  C49 STI   202      14.537 100.636  55.379  1.00  0.00     0.286 C 
HETATM   35  C50 STI   202      15.325 100.205  54.104  1.00  0.00     0.286 C 
HETATM   36  N51 STI   202      14.414 100.312  52.889  1.00  0.00     0.143 N 
HETATM   37  C52 STI   202      13.164  99.466  53.067  1.00  0.00     0.286 C 
HETATM   38  C54 STI   202      15.178  99.969  51.677  1.00  0.00     0.285 C 
HETATM   39  C53 STI   202      12.403  99.882  54.353  1.00  0.00     0.286 C 
ENDBRANCH  32  33
ENDBRANCH  29  32
ENDBRANCH  23  26
ENDBRANCH  17  22
ENDBRANCH  13  15
ENDBRANCH   9  13
ENDBRANCH   5   7
TORSDOF 7
ENDMDL
MODEL 6
REMARK VINA RESULT:     -10.1      2.978     12.160
REMARK  7 active torsions:
REMARK  status: ('A' for Active; 'I' for Inactive)
REMARK    1  A    between atoms: C5_5  and  C7_7 
REMARK    2  A    between atoms: C9_9  and  N13_13 
REMARK    3  A    between atoms: N13_13  and  C14_14 
REMARK    4  A    between atoms: C16_16  and  N21_21 
REMARK       I    between atoms: N21_21  and  C22_22 
REMARK    5  A    between atoms: C22_22  and  C23_23 
REMARK    6  A    between atoms: C27_26  and  C46_30 
REMARK    7  A    between atoms: C46_30  and  N48_31 
ROOT
HETATM    1  C1  STI   202       4.844  94.099  60.679  1.00  0.00    -0.001 A 
HETATM    2  C2  STI   202       4.434  93.261  59.589  1.00  0.00     0.095 A 
HETATM    3  N3  STI   202       4.887  91.941  59.505  1.00  0.00    -0.243 NA
HETATM    4  C4  STI   202       5.739  91.377  60.449  1.00  0.00     0.097 A 
HETATM    5  C5  STI   202       6.195  92.165  61.579  1.00  0.00     0.020 A 
HETATM    6  C6  STI   202       5.731  93.544  61.677  1.00  0.00     0.057 A 
ENDROOT
BRANCH   5   7
HETATM    7  C7  STI   202       7.118  91.538  62.583  1.00  0.00     0.099 A 
HETATM    8  N8  STI   202       7.925  92.389  63.313  1.00  0.00    -0.061 NA
HETATM    9  C9  STI   202       8.796  91.929  64.254  1.00  0.00     0.728 A 
HETATM   10  N10 STI   202       8.889  90.569  64.499  1.00  0.00    -0.059 NA
HETATM   11  C11 STI   202       8.106  89.665  63.800  1.00  0.00     0.119 A 
HETATM   12  C12 STI   202       7.190  90.119  62.816  1.00  0.00     0.041 A 
BRANCH   9  13
HETATM   13  N13 STI   202       9.568  92.868  64.944  1.00  0.00    -0.190 N 
HETATM   14  H   STI   202       9.256  93.170  65.934  1.00  0.00     0.184 HD
BRANCH  13  15
HETATM   15  C14 STI   202      10.734  93.434  64.400  1.00  0.00     0.052 A 
HETATM   16  C15 STI   202      10.602  94.500  63.457  1.00  0.00     0.087 A 
HETATM   17  C16 STI   202      11.783  95.133  62.865  1.00  0.00     0.042 A 
HETATM   18  C17 STI   202      13.067  94.659  63.249  1.00  0.00     0.013 A 
HETATM   19  C18 STI   202      13.214  93.586  64.200  1.00  0.00    -0.002 A 
HETATM   20  C19 STI   202      12.064  92.957  64.791  1.00  0.00    -0.009 A 
HETATM   21  C20 STI   202      12.303  91.816  65.808  1.00  0.00     0.032 C 
BRANCH  17  22
HETATM   22  N21 STI   202      11.731  96.215  61.911  1.00  0.00    -0.325 N 
HETATM   23  C22 STI   202      12.556  96.450  60.828  1.00  0.00     0.253 C 
HETATM   24  O29 STI   202      13.616  95.886  60.632  1.00  0.00    -0.268 OA
HETATM   25  H   STI   202      10.941  96.939  62.064  1.00  0.00     0.169 HD
BRANCH  23  26
HETATM   26  C23 STI   202      12.155  97.473  59.818  1.00  0.00     0.034 A 
HETATM   27  C25 STI   202      11.020  97.244  58.925  1.00  0.00     0.036 A 
HETATM   28  C26 STI   202      10.666  98.240  57.947  1.00  0.00     0.029 A 
HETATM   29  C27 STI   202      11.443  99.464  57.858  1.00  0.00    -0.011 A 
HETATM   30  C28 STI   202      12.560  99.670  58.757  1.00  0.00    -0.007 A 
HETATM   31  C29 STI   202      12.914  98.699  59.718  1.00  0.00    -0.000 A 
BRANCH  29  32
HETATM   32  C46 STI   202      11.143 100.559  56.830  1.00  0.00     0.273 C 
BRANCH  32  33
HETATM   33  N48 STI   202      11.958 100.582  55.578  1.00  0.00     0.145 N 
HETATM   34  C49 STI   202      11.534  99.481  54.612  1.00  0.00     0.286 C 
HETATM   35  C50 STI   202      12.378  99.520  53.301  1.00  0.00     0.286 C 
HETATM   36  N51 STI   202      13.854  99.392  53.650  1.00  0.00     0.143 N 
HETATM   37  C52 STI   202      14.286 100.491  54.607  1.00  0.00     0.286 C 
HETATM   38  C54 STI   202      14.645  99.362  52.408  1.00  0.00     0.285 C 
HETATM   39  C53 STI   202      13.421 100.462  55.895  1.00  0.00     0.286 C 
ENDBRANCH  32  33
ENDBRANCH  29  32
ENDBRANCH  23  26
ENDBRANCH  17  22
ENDBRANCH  13  15
ENDBRANCH   9  13
ENDBRANCH   5   7
TORSDOF 7
ENDMDL
MODEL 7
REMARK VINA RESULT:     -10.1      1.728     13.778
REMARK  7 active torsions:
REMARK  status: ('A' for Active; 'I' for Inactive)
REMARK    1  A    between atoms: C5_5  and  C7_7 
REMARK    2  A    between atoms: C9_9  and  N13_13 
REMARK    3  A    between atoms: N13_13  and  C14_14 
REMARK    4  A    between atoms: C16_16  and  N21_21 
REMARK       I    between atoms: N21_21  and  C22_22 
REMARK    5  A    between atoms: C22_22  and  C23_23 
REMARK    6  A    between atoms: C27_26  and  C46_30 
REMARK    7  A    between atoms: C46_30  and  N48_31 
ROOT
HETATM    1  C1  STI   202       8.483  86.794  67.904  1.00  0.00    -0.001 A 
HETATM    2  C2  STI   202       9.168  87.079  69.133  1.00  0.00     0.095 A 
HETATM    3  N3  STI   202       9.855  88.287  69.293  1.00  0.00    -0.243 NA
HETATM    4  C4  STI   202       9.913  89.257  68.297  1.00  0.00     0.097 A 
HETATM    5  C5  STI   202       9.245  89.037  67.029  1.00  0.00     0.020 A 
HETATM    6  C6  STI   202       8.526  87.781  66.848  1.00  0.00     0.057 A 
ENDROOT
BRANCH   5   7
HETATM    7  C7  STI   202       9.324  90.095  65.966  1.00  0.00     0.099 A 
HETATM    8  N8  STI   202      10.285  91.074  66.125  1.00  0.00    -0.061 NA
HETATM    9  C9  STI   202      10.448  92.079  65.220  1.00  0.00     0.728 A 
HETATM   10  N10 STI   202       9.635  92.135  64.100  1.00  0.00    -0.059 NA
HETATM   11  C11 STI   202       8.654  91.182  63.885  1.00  0.00     0.119 A 
HETATM   12  C12 STI   202       8.464  90.125  64.812  1.00  0.00     0.041 A 
BRANCH   9  13
HETATM   13  N13 STI   202      11.450  93.022  65.465  1.00  0.00    -0.190 N 
HETATM   14  H   STI   202      11.416  93.589  66.386  1.00  0.00     0.184 HD
BRANCH  13  15
HETATM   15  C14 STI   202      12.498  93.263  64.561  1.00  0.00     0.052 A 
HETATM   16  C15 STI   202      12.290  94.203  63.504  1.00  0.00     0.087 A 
HETATM   17  C16 STI   202      13.351  94.498  62.538  1.00  0.00     0.042 A 
HETATM   18  C17 STI   202      14.596  93.825  62.675  1.00  0.00     0.013 A 
HETATM   19  C18 STI   202      14.819  92.877  63.737  1.00  0.00    -0.002 A 
HETATM   20  C19 STI   202      13.788  92.578  64.693  1.00  0.00    -0.009 A 
HETATM   21  C20 STI   202      14.107  91.554  65.808  1.00  0.00     0.032 C 
BRANCH  17  22
HETATM   22  N21 STI   202      13.218  95.436  61.449  1.00  0.00    -0.325 N 
HETATM   23  C22 STI   202      12.165  96.283  61.164  1.00  0.00     0.253 C 
HETATM   24  O29 STI   202      11.064  96.213  61.675  1.00  0.00    -0.268 OA
HETATM   25  H   STI   202      14.056  95.482  60.765  1.00  0.00     0.169 HD
BRANCH  23  26
HETATM   26  C23 STI   202      12.354  97.361  60.149  1.00  0.00     0.034 A 
HETATM   27  C25 STI   202      11.461  98.519  60.106  1.00  0.00     0.036 A 
HETATM   28  C26 STI   202      11.654  99.535  59.104  1.00  0.00     0.029 A 
HETATM   29  C27 STI   202      12.737  99.399  58.146  1.00  0.00    -0.011 A 
HETATM   30  C28 STI   202      13.611  98.247  58.212  1.00  0.00    -0.007 A 
HETATM   31  C29 STI   202      13.429  97.245  59.191  1.00  0.00    -0.000 A 
BRANCH  29  32
HETATM   32  C46 STI   202      12.993 100.426  57.038  1.00  0.00     0.273 C 
BRANCH  32  33
HETATM   33  N48 STI   202      13.583  99.936  55.757  1.00  0.00     0.145 N 
HETATM   34  C49 STI   202      14.920 100.608  55.462  1.00  0.00     0.286 C 
HETATM   35  C50 STI   202      15.539 100.081  54.131  1.00  0.00     0.286 C 
HETATM   36  N51 STI   202      14.556 100.313  52.993  1.00  0.00     0.143 N 
HETATM   37  C52 STI   202      13.223  99.640  53.276  1.00  0.00     0.286 C 
HETATM   38  C54 STI   202      15.168  99.877  51.726  1.00  0.00     0.285 C 
HETATM   39  C53 STI   202      12.630 100.149  54.616  1.00  0.00     0.286 C 
ENDBRANCH  32  33
ENDBRANCH  29  32
ENDBRANCH  23  26
ENDBRANCH  17  22
ENDBRANCH  13  15
ENDBRANCH   9  13
ENDBRANCH   5   7
TORSDOF 7
ENDMDL
