MODEL 1
REMARK VINA RESULT:      -5.7      0.000      0.000
REMARK  3 active torsions:
REMARK  status: ('A' for Active; 'I' for Inactive)
REMARK    1  A    between atoms: C1_1  and  C7_11 
REMARK    2  A    between atoms: N1_2  and  C8_12 
REMARK    3  A    between atoms: C7_11  and  C8_12 
ROOT
HETATM    1  C1  ALE A1402      -8.074 -13.260 -52.235  1.00 82.90     0.012 A 
HETATM    2  O1  ALE A1402     -10.865 -15.339 -53.379  1.00 91.95    -0.188 OA
HETATM    3  C2  ALE A1402      -9.275 -13.963 -52.200  1.00 92.28     0.028 A 
HETATM    4  O2  ALE A1402      -9.433 -15.290 -55.569  1.00 89.58    -0.188 OA
HETATM    5  C3  ALE A1402      -9.703 -14.633 -53.339  1.00 95.92     0.156 A 
HETATM    6  C4  ALE A1402      -8.944 -14.607 -54.500  1.00 92.28     0.156 A 
HETATM    7  C5  ALE A1402      -7.743 -13.908 -54.542  1.00 86.87     0.029 A 
HETATM    8  C6  ALE A1402      -7.313 -13.235 -53.402  1.00 82.92     0.001 A 
ENDROOT
BRANCH   1   9
HETATM    9  C7  ALE A1402      -7.638 -12.585 -51.098  1.00 82.45     0.211 C 
HETATM   10  O3  ALE A1402      -6.997 -13.493 -50.198  1.00 73.05    -0.216 OA
BRANCH   9  11
HETATM   11  C8  ALE A1402      -6.661 -11.477 -51.495  1.00 96.53     0.327 C 
BRANCH  11  12
HETATM   12  N1  ALE A1402      -7.315 -10.161 -51.452  1.00102.87     0.344 N 
HETATM   13  C9  ALE A1402      -8.058 -10.021 -50.192  1.00107.66     0.328 C 
ENDBRANCH  11  12
ENDBRANCH   9  11
ENDBRANCH   1   9
TORSDOF 3
ENDMDL
MODEL 2
REMARK VINA RESULT:      -5.7      2.540      4.879
REMARK  3 active torsions:
REMARK  status: ('A' for Active; 'I' for Inactive)
REMARK    1  A    between atoms: C1_1  and  C7_11 
REMARK    2  A    between atoms: N1_2  and  C8_12 
REMARK    3  A    between atoms: C7_11  and  C8_12 
ROOT
HETATM    1  C1  ALE A1402      -6.932 -12.421 -51.601  1.00 82.90     0.012 A 
HETATM    2  O1  ALE A1402      -8.465 -11.545 -48.390  1.00 91.95    -0.188 OA
HETATM    3  C2  ALE A1402      -7.473 -12.581 -50.328  1.00 92.28     0.028 A 
HETATM    4  O2  ALE A1402      -8.315  -9.164 -49.464  1.00 89.58    -0.188 OA
HETATM    5  C3  ALE A1402      -7.927 -11.465 -49.637  1.00 95.92     0.156 A 
HETATM    6  C4  ALE A1402      -7.847 -10.203 -50.206  1.00 92.28     0.156 A 
HETATM    7  C5  ALE A1402      -7.310 -10.035 -51.477  1.00 86.87     0.029 A 
HETATM    8  C6  ALE A1402      -6.853 -11.152 -52.170  1.00 82.92     0.001 A 
ENDROOT
BRANCH   1   9
HETATM    9  C7  ALE A1402      -6.474 -13.534 -52.299  1.00 82.45     0.211 C 
HETATM   10  O3  ALE A1402      -6.667 -14.720 -51.524  1.00 73.05    -0.216 OA
BRANCH   9  11
HETATM   11  C8  ALE A1402      -7.223 -13.659 -53.627  1.00 96.53     0.327 C 
BRANCH  11  12
HETATM   12  N1  ALE A1402      -8.603 -14.115 -53.410  1.00102.87     0.344 N 
HETATM   13  C9  ALE A1402      -9.135 -14.684 -54.656  1.00107.66     0.328 C 
ENDBRANCH  11  12
ENDBRANCH   9  11
ENDBRANCH   1   9
TORSDOF 3
ENDMDL
MODEL 3
REMARK VINA RESULT:      -5.6      2.985      4.633
REMARK  3 active torsions:
REMARK  status: ('A' for Active; 'I' for Inactive)
REMARK    1  A    between atoms: C1_1  and  C7_11 
REMARK    2  A    between atoms: N1_2  and  C8_12 
REMARK    3  A    between atoms: C7_11  and  C8_12 
ROOT
HETATM    1  C1  ALE A1402      -6.117 -13.759 -51.498  1.00 82.90     0.012 A 
HETATM    2  O1  ALE A1402      -3.226 -14.059 -49.267  1.00 91.95    -0.188 OA
HETATM    3  C2  ALE A1402      -5.217 -13.449 -50.481  1.00 92.28     0.028 A 
HETATM    4  O2  ALE A1402      -2.887 -16.215 -50.710  1.00 89.58    -0.188 OA
HETATM    5  C3  ALE A1402      -4.144 -14.297 -50.242  1.00 95.92     0.156 A 
HETATM    6  C4  ALE A1402      -3.964 -15.440 -51.008  1.00 92.28     0.156 A 
HETATM    7  C5  ALE A1402      -4.857 -15.755 -52.025  1.00 86.87     0.029 A 
HETATM    8  C6  ALE A1402      -5.934 -14.907 -52.265  1.00 82.92     0.001 A 
ENDROOT
BRANCH   1   9
HETATM    9  C7  ALE A1402      -7.196 -12.914 -51.743  1.00 82.45     0.211 C 
HETATM   10  O3  ALE A1402      -8.383 -13.680 -51.967  1.00 73.05    -0.216 OA
BRANCH   9  11
HETATM   11  C8  ALE A1402      -7.404 -11.978 -50.551  1.00 96.53     0.327 C 
BRANCH  11  12
HETATM   12  N1  ALE A1402      -7.659 -10.603 -51.003  1.00102.87     0.344 N 
HETATM   13  C9  ALE A1402      -8.188  -9.809 -49.885  1.00107.66     0.328 C 
ENDBRANCH  11  12
ENDBRANCH   9  11
ENDBRANCH   1   9
TORSDOF 3
ENDMDL
MODEL 4
REMARK VINA RESULT:      -5.6      3.025      4.213
REMARK  3 active torsions:
REMARK  status: ('A' for Active; 'I' for Inactive)
REMARK    1  A    between atoms: C1_1  and  C7_11 
REMARK    2  A    between atoms: N1_2  and  C8_12 
REMARK    3  A    between atoms: C7_11  and  C8_12 
ROOT
HETATM    1  C1  ALE A1402      -6.192 -13.693 -51.597  1.00 82.90     0.012 A 
HETATM    2  O1  ALE A1402      -4.753 -16.816 -52.862  1.00 91.95    -0.188 OA
HETATM    3  C2  ALE A1402      -6.024 -14.821 -52.394  1.00 92.28     0.028 A 
HETATM    4  O2  ALE A1402      -3.113 -16.356 -50.875  1.00 89.58    -0.188 OA
HETATM    5  C3  ALE A1402      -4.979 -15.695 -52.125  1.00 95.92     0.156 A 
HETATM    6  C4  ALE A1402      -4.110 -15.451 -51.072  1.00 92.28     0.156 A 
HETATM    7  C5  ALE A1402      -4.271 -14.327 -50.270  1.00 86.87     0.029 A 
HETATM    8  C6  ALE A1402      -5.318 -13.450 -50.539  1.00 82.92     0.001 A 
ENDROOT
BRANCH   1   9
HETATM    9  C7  ALE A1402      -7.236 -12.812 -51.861  1.00 82.45     0.211 C 
HETATM   10  O3  ALE A1402      -8.434 -13.537 -52.157  1.00 73.05    -0.216 OA
BRANCH   9  11
HETATM   11  C8  ALE A1402      -7.469 -11.904 -50.652  1.00 96.53     0.327 C 
BRANCH  11  12
HETATM   12  N1  ALE A1402      -7.742 -10.524 -51.076  1.00102.87     0.344 N 
HETATM   13  C9  ALE A1402      -8.224  -9.743 -49.929  1.00107.66     0.328 C 
ENDBRANCH  11  12
ENDBRANCH   9  11
ENDBRANCH   1   9
TORSDOF 3
ENDMDL
MODEL 5
REMARK VINA RESULT:      -5.6      3.786      5.427
REMARK  3 active torsions:
REMARK  status: ('A' for Active; 'I' for Inactive)
REMARK    1  A    between atoms: C1_1  and  C7_11 
REMARK    2  A    between atoms: N1_2  and  C8_12 
REMARK    3  A    between atoms: C7_11  and  C8_12 
ROOT
HETATM    1  C1  ALE A1402      -5.514 -14.407 -51.248  1.00 82.90     0.012 A 
HETATM    2  O1  ALE A1402      -2.484 -15.064 -49.295  1.00 91.95    -0.188 OA
HETATM    3  C2  ALE A1402      -4.550 -14.270 -50.254  1.00 92.28     0.028 A 
HETATM    4  O2  ALE A1402      -2.245 -16.933 -51.111  1.00 89.58    -0.188 OA
HETATM    5  C3  ALE A1402      -3.464 -15.137 -50.236  1.00 95.92     0.156 A 
HETATM    6  C4  ALE A1402      -3.338 -16.127 -51.199  1.00 92.28     0.156 A 
HETATM    7  C5  ALE A1402      -4.296 -16.269 -52.195  1.00 86.87     0.029 A 
HETATM    8  C6  ALE A1402      -5.384 -15.403 -52.214  1.00 82.92     0.001 A 
ENDROOT
BRANCH   1   9
HETATM    9  C7  ALE A1402      -6.606 -13.543 -51.272  1.00 82.45     0.211 C 
HETATM   10  O3  ALE A1402      -6.167 -12.187 -51.150  1.00 73.05    -0.216 OA
BRANCH   9  11
HETATM   11  C8  ALE A1402      -7.379 -13.719 -52.580  1.00 96.53     0.327 C 
BRANCH  11  12
HETATM   12  N1  ALE A1402      -8.817 -13.880 -52.322  1.00102.87     0.344 N 
HETATM   13  C9  ALE A1402      -9.498 -14.272 -53.564  1.00107.66     0.328 C 
ENDBRANCH  11  12
ENDBRANCH   9  11
ENDBRANCH   1   9
TORSDOF 3
ENDMDL
MODEL 6
REMARK VINA RESULT:      -5.5      3.400      5.044
REMARK  3 active torsions:
REMARK  status: ('A' for Active; 'I' for Inactive)
REMARK    1  A    between atoms: C1_1  and  C7_11 
REMARK    2  A    between atoms: N1_2  and  C8_12 
REMARK    3  A    between atoms: C7_11  and  C8_12 
ROOT
HETATM    1  C1  ALE A1402      -6.953 -13.330 -50.949  1.00 82.90     0.012 A 
HETATM    2  O1  ALE A1402      -7.123  -9.840 -52.050  1.00 91.95    -0.188 OA
HETATM    3  C2  ALE A1402      -6.787 -12.210 -51.758  1.00 92.28     0.028 A 
HETATM    4  O2  ALE A1402      -8.287  -9.617 -49.717  1.00 89.58    -0.188 OA
HETATM    5  C3  ALE A1402      -7.249 -10.977 -51.314  1.00 95.92     0.156 A 
HETATM    6  C4  ALE A1402      -7.866 -10.859 -50.077  1.00 92.28     0.156 A 
HETATM    7  C5  ALE A1402      -8.033 -11.973 -49.263  1.00 86.87     0.029 A 
HETATM    8  C6  ALE A1402      -7.572 -13.209 -49.707  1.00 82.92     0.001 A 
ENDROOT
BRANCH   1   9
HETATM    9  C7  ALE A1402      -6.494 -14.569 -51.387  1.00 82.45     0.211 C 
HETATM   10  O3  ALE A1402      -5.706 -14.416 -52.571  1.00 73.05    -0.216 OA
BRANCH   9  11
HETATM   11  C8  ALE A1402      -5.654 -15.229 -50.292  1.00 96.53     0.327 C 
BRANCH  11  12
HETATM   12  N1  ALE A1402      -4.246 -14.818 -50.390  1.00102.87     0.344 N 
HETATM   13  C9  ALE A1402      -3.767 -14.384 -49.071  1.00107.66     0.328 C 
ENDBRANCH  11  12
ENDBRANCH   9  11
ENDBRANCH   1   9
TORSDOF 3
ENDMDL
MODEL 7
REMARK VINA RESULT:      -5.5      2.304      2.917
REMARK  3 active torsions:
REMARK  status: ('A' for Active; 'I' for Inactive)
REMARK    1  A    between atoms: C1_1  and  C7_11 
REMARK    2  A    between atoms: N1_2  and  C8_12 
REMARK    3  A    between atoms: C7_11  and  C8_12 
ROOT
HETATM    1  C1  ALE A1402      -6.861 -13.548 -51.410  1.00 82.90     0.012 A 
HETATM    2  O1  ALE A1402      -6.645 -14.961 -54.784  1.00 91.95    -0.188 OA
HETATM    3  C2  ALE A1402      -7.129 -13.738 -52.763  1.00 92.28     0.028 A 
HETATM    4  O2  ALE A1402      -4.861 -16.446 -53.576  1.00 89.58    -0.188 OA
HETATM    5  C3  ALE A1402      -6.438 -14.720 -53.462  1.00 95.92     0.156 A 
HETATM    6  C4  ALE A1402      -5.492 -15.507 -52.821  1.00 92.28     0.156 A 
HETATM    7  C5  ALE A1402      -5.221 -15.324 -51.470  1.00 86.87     0.029 A 
HETATM    8  C6  ALE A1402      -5.912 -14.340 -50.769  1.00 82.92     0.001 A 
ENDROOT
BRANCH   1   9
HETATM    9  C7  ALE A1402      -7.549 -12.565 -50.704  1.00 82.45     0.211 C 
HETATM   10  O3  ALE A1402      -7.450 -12.805 -49.297  1.00 73.05    -0.216 OA
BRANCH   9  11
HETATM   11  C8  ALE A1402      -6.971 -11.188 -51.034  1.00 96.53     0.327 C 
BRANCH  11  12
HETATM   12  N1  ALE A1402      -8.032 -10.173 -51.089  1.00102.87     0.344 N 
HETATM   13  C9  ALE A1402      -8.241  -9.606 -49.750  1.00107.66     0.328 C 
ENDBRANCH  11  12
ENDBRANCH   9  11
ENDBRANCH   1   9
TORSDOF 3
ENDMDL
MODEL 8
REMARK VINA RESULT:      -5.5      3.529      4.776
REMARK  3 active torsions:
REMARK  status: ('A' for Active; 'I' for Inactive)
REMARK    1  A    between atoms: C1_1  and  C7_11 
REMARK    2  A    between atoms: N1_2  and  C8_12 
REMARK    3  A    between atoms: C7_11  and  C8_12 
ROOT
HETATM    1  C1  ALE A1402      -6.674 -13.477 -50.945  1.00 82.90     0.012 A 
HETATM    2  O1  ALE A1402      -8.469 -11.362 -48.551  1.00 91.95    -0.188 OA
HETATM    3  C2  ALE A1402      -7.319 -13.094 -49.772  1.00 92.28     0.028 A 
HETATM    4  O2  ALE A1402      -8.225  -9.668 -50.531  1.00 89.58    -0.188 OA
HETATM    5  C3  ALE A1402      -7.828 -11.806 -49.666  1.00 95.92     0.156 A 
HETATM    6  C4  ALE A1402      -7.698 -10.908 -50.715  1.00 92.28     0.156 A 
HETATM    7  C5  ALE A1402      -7.057 -11.283 -51.889  1.00 86.87     0.029 A 
HETATM    8  C6  ALE A1402      -6.546 -12.573 -51.997  1.00 82.92     0.001 A 
ENDROOT
BRANCH   1   9
HETATM    9  C7  ALE A1402      -6.160 -14.766 -51.059  1.00 82.45     0.211 C 
HETATM   10  O3  ALE A1402      -5.429 -14.902 -52.281  1.00 73.05    -0.216 OA
BRANCH   9  11
HETATM   11  C8  ALE A1402      -5.243 -15.066 -49.873  1.00 96.53     0.327 C 
BRANCH  11  12
HETATM   12  N1  ALE A1402      -3.833 -14.852 -50.232  1.00102.87     0.344 N 
HETATM   13  C9  ALE A1402      -3.256 -13.819 -49.360  1.00107.66     0.328 C 
ENDBRANCH  11  12
ENDBRANCH   9  11
ENDBRANCH   1   9
TORSDOF 3
ENDMDL
MODEL 9
REMARK VINA RESULT:      -5.5      4.347      4.999
REMARK  3 active torsions:
REMARK  status: ('A' for Active; 'I' for Inactive)
REMARK    1  A    between atoms: C1_1  and  C7_11 
REMARK    2  A    between atoms: N1_2  and  C8_12 
REMARK    3  A    between atoms: C7_11  and  C8_12 
ROOT
HETATM    1  C1  ALE A1402      -4.785 -14.165 -50.302  1.00 82.90     0.012 A 
HETATM    2  O1  ALE A1402      -7.032 -12.639 -52.762  1.00 91.95    -0.188 OA
HETATM    3  C2  ALE A1402      -5.619 -13.222 -50.896  1.00 92.28     0.028 A 
HETATM    4  O2  ALE A1402      -6.584 -14.931 -53.944  1.00 89.58    -0.188 OA
HETATM    5  C3  ALE A1402      -6.207 -13.511 -52.121  1.00 95.92     0.156 A 
HETATM    6  C4  ALE A1402      -5.969 -14.726 -52.748  1.00 92.28     0.156 A 
HETATM    7  C5  ALE A1402      -5.139 -15.672 -52.160  1.00 86.87     0.029 A 
HETATM    8  C6  ALE A1402      -4.548 -15.384 -50.933  1.00 82.92     0.001 A 
ENDROOT
BRANCH   1   9
HETATM    9  C7  ALE A1402      -4.191 -13.882 -49.075  1.00 82.45     0.211 C 
HETATM   10  O3  ALE A1402      -4.739 -14.723 -48.055  1.00 73.05    -0.216 OA
BRANCH   9  11
HETATM   11  C8  ALE A1402      -2.680 -14.101 -49.166  1.00 96.53     0.327 C 
BRANCH  11  12
HETATM   12  N1  ALE A1402      -2.165 -14.728 -47.941  1.00102.87     0.344 N 
HETATM   13  C9  ALE A1402      -1.371 -15.913 -48.292  1.00107.66     0.328 C 
ENDBRANCH  11  12
ENDBRANCH   9  11
ENDBRANCH   1   9
TORSDOF 3
ENDMDL
