REMARK  2 active torsions:
REMARK  status: ('A' for Active; 'I' for Inactive)
REMARK    1  A    between atoms: C2_2  and  N2_3 
REMARK       I    between atoms: N2_3  and  C7_12 
REMARK    2  A    between atoms: C5_8  and  C6_10 
ROOT
HETATM    1  C1  NAG D1381      16.821  28.737 -18.736  1.00 68.49     0.169 C 
HETATM    2  C2  NAG D1381      15.393  28.512 -19.232  1.00 69.49     0.169 C 
HETATM    3  C3  NAG D1381      14.872  29.838 -19.781  1.00 64.46     0.210 C 
HETATM    4  O3  NAG D1381      13.443  29.767 -19.807  1.00 65.48    -0.218 OA
HETATM    5  C4  NAG D1381      15.298  31.049 -18.926  1.00 65.82     0.214 C 
HETATM    6  O4  NAG D1381      16.166  31.910 -19.697  1.00 63.15    -0.218 OA
HETATM    7  C5  NAG D1381      16.000  30.725 -17.574  1.00 65.83     0.181 C 
HETATM    8  O5  NAG D1381      16.624  29.426 -17.488  1.00 71.52    -0.349 OA
ENDROOT
BRANCH   2   9
HETATM    9  N2  NAG D1381      15.287  27.342 -20.120  1.00 64.46    -0.235 NA
HETATM   10  C7  NAG D1381      14.094  26.750 -20.338  1.00 63.69     0.252 C 
HETATM   11  O7  NAG D1381      13.042  27.174 -19.842  1.00 53.47    -0.271 OA
HETATM   12  C8  NAG D1381      14.105  25.546 -21.243  1.00 60.84     0.100 C 
ENDBRANCH   2   9
BRANCH   7  13
HETATM   13  C6  NAG D1381      15.067  30.862 -16.362  1.00 63.54     0.214 C 
HETATM   14  O6  NAG D1381      15.829  30.988 -15.148  1.00 57.65    -0.218 OA
ENDBRANCH   7  13
TORSDOF 2
