MODEL 1
REMARK VINA RESULT:      -6.1      0.000      0.000
REMARK  2 active torsions:
REMARK  status: ('A' for Active; 'I' for Inactive)
REMARK    1  A    between atoms: C2_2  and  N2_3 
REMARK       I    between atoms: N2_3  and  C7_12 
REMARK    2  A    between atoms: C5_8  and  C6_10 
ROOT
HETATM    1  C1  NAG D1381      -6.390 -15.264 -53.214  1.00 68.49     0.169 C 
HETATM    2  C2  NAG D1381      -6.323 -14.318 -54.412  1.00 69.49     0.169 C 
HETATM    3  C3  NAG D1381      -6.341 -12.886 -53.881  1.00 64.46     0.210 C 
HETATM    4  O3  NAG D1381      -6.744 -12.029 -54.954  1.00 65.48    -0.218 OA
HETATM    5  C4  NAG D1381      -7.311 -12.698 -52.697  1.00 65.82     0.214 C 
HETATM    6  O4  NAG D1381      -6.568 -12.353 -51.507  1.00 63.15    -0.218 OA
HETATM    7  C5  NAG D1381      -8.238 -13.906 -52.367  1.00 65.83     0.181 C 
HETATM    8  O5  NAG D1381      -7.773 -15.194 -52.824  1.00 71.52    -0.349 OA
ENDROOT
BRANCH   2   9
HETATM    9  N2  NAG D1381      -5.234 -14.666 -55.340  1.00 64.46    -0.235 NA
HETATM   10  C7  NAG D1381      -5.499 -14.972 -56.627  1.00 63.69     0.252 C 
HETATM   11  O7  NAG D1381      -6.644 -14.941 -57.095  1.00 53.47    -0.271 OA
HETATM   12  C8  NAG D1381      -4.312 -15.337 -57.481  1.00 60.84     0.100 C 
ENDBRANCH   2   9
BRANCH   7  13
HETATM   13  C6  NAG D1381      -9.670 -13.728 -52.890  1.00 63.54     0.214 C 
HETATM   14  O6  NAG D1381     -10.603 -13.652 -51.797  1.00 57.65    -0.218 OA
ENDBRANCH   7  13
TORSDOF 2
ENDMDL
MODEL 2
REMARK VINA RESULT:      -5.7      1.856      3.456
REMARK  2 active torsions:
REMARK  status: ('A' for Active; 'I' for Inactive)
REMARK    1  A    between atoms: C2_2  and  N2_3 
REMARK       I    between atoms: N2_3  and  C7_12 
REMARK    2  A    between atoms: C5_8  and  C6_10 
ROOT
HETATM    1  C1  NAG D1381      -6.714 -11.889 -54.283  1.00 68.49     0.169 C 
HETATM    2  C2  NAG D1381      -6.513 -13.399 -54.413  1.00 69.49     0.169 C 
HETATM    3  C3  NAG D1381      -7.006 -14.051 -53.123  1.00 64.46     0.210 C 
HETATM    4  O3  NAG D1381      -6.412 -15.350 -53.037  1.00 65.48    -0.218 OA
HETATM    5  C4  NAG D1381      -6.631 -13.244 -51.863  1.00 65.82     0.214 C 
HETATM    6  O4  NAG D1381      -7.831 -12.764 -51.216  1.00 63.15    -0.218 OA
HETATM    7  C5  NAG D1381      -5.670 -12.038 -52.078  1.00 65.83     0.181 C 
HETATM    8  O5  NAG D1381      -5.637 -11.494 -53.415  1.00 71.52    -0.349 OA
ENDROOT
BRANCH   2   9
HETATM    9  N2  NAG D1381      -7.059 -13.930 -55.673  1.00 64.46    -0.235 NA
HETATM   10  C7  NAG D1381      -6.238 -14.409 -56.631  1.00 63.69     0.252 C 
HETATM   11  O7  NAG D1381      -5.010 -14.460 -56.487  1.00 53.47    -0.271 OA
HETATM   12  C8  NAG D1381      -6.902 -14.904 -57.889  1.00 60.84     0.100 C 
ENDBRANCH   2   9
BRANCH   7  13
HETATM   13  C6  NAG D1381      -4.220 -12.343 -51.675  1.00 63.54     0.214 C 
HETATM   14  O6  NAG D1381      -3.566 -11.153 -51.199  1.00 57.65    -0.218 OA
ENDBRANCH   7  13
TORSDOF 2
ENDMDL
MODEL 3
REMARK VINA RESULT:      -5.6      8.359      9.798
REMARK  2 active torsions:
REMARK  status: ('A' for Active; 'I' for Inactive)
REMARK    1  A    between atoms: C2_2  and  N2_3 
REMARK       I    between atoms: N2_3  and  C7_12 
REMARK    2  A    between atoms: C5_8  and  C6_10 
ROOT
HETATM    1  C1  NAG D1381      -0.628 -13.348 -47.642  1.00 68.49     0.169 C 
HETATM    2  C2  NAG D1381      -0.634 -12.262 -48.717  1.00 69.49     0.169 C 
HETATM    3  C3  NAG D1381       0.810 -12.025 -49.153  1.00 64.46     0.210 C 
HETATM    4  O3  NAG D1381       0.870 -10.740 -49.780  1.00 65.48    -0.218 OA
HETATM    5  C4  NAG D1381       1.804 -12.053 -47.974  1.00 65.82     0.214 C 
HETATM    6  O4  NAG D1381       2.712 -13.167 -48.127  1.00 63.15    -0.218 OA
HETATM    7  C5  NAG D1381       1.180 -12.118 -46.548  1.00 65.83     0.181 C 
HETATM    8  O5  NAG D1381      -0.162 -12.644 -46.476  1.00 71.52    -0.349 OA
ENDROOT
BRANCH   2   9
HETATM    9  N2  NAG D1381      -1.609 -12.538 -49.785  1.00 64.46    -0.235 NA
HETATM   10  C7  NAG D1381      -2.568 -11.638 -50.090  1.00 63.69     0.252 C 
HETATM   11  O7  NAG D1381      -2.653 -10.541 -49.524  1.00 53.47    -0.271 OA
HETATM   12  C8  NAG D1381      -3.528 -12.034 -51.181  1.00 60.84     0.100 C 
ENDBRANCH   2   9
BRANCH   7  13
HETATM   13  C6  NAG D1381       1.175 -10.761 -45.829  1.00 63.54     0.214 C 
HETATM   14  O6  NAG D1381       0.409 -10.835 -44.614  1.00 57.65    -0.218 OA
ENDBRANCH   7  13
TORSDOF 2
ENDMDL
MODEL 4
REMARK VINA RESULT:      -5.5      2.468      3.726
REMARK  2 active torsions:
REMARK  status: ('A' for Active; 'I' for Inactive)
REMARK    1  A    between atoms: C2_2  and  N2_3 
REMARK       I    between atoms: N2_3  and  C7_12 
REMARK    2  A    between atoms: C5_8  and  C6_10 
ROOT
HETATM    1  C1  NAG D1381      -7.768 -12.694 -54.798  1.00 68.49     0.169 C 
HETATM    2  C2  NAG D1381      -6.617 -12.042 -54.033  1.00 69.49     0.169 C 
HETATM    3  C3  NAG D1381      -5.745 -13.155 -53.459  1.00 64.46     0.210 C 
HETATM    4  O3  NAG D1381      -4.974 -12.596 -52.390  1.00 65.48    -0.218 OA
HETATM    5  C4  NAG D1381      -6.567 -14.341 -52.916  1.00 65.82     0.214 C 
HETATM    6  O4  NAG D1381      -6.290 -15.526 -53.696  1.00 63.15    -0.218 OA
HETATM    7  C5  NAG D1381      -8.111 -14.140 -52.857  1.00 65.83     0.181 C 
HETATM    8  O5  NAG D1381      -8.645 -13.137 -53.747  1.00 71.52    -0.349 OA
ENDROOT
BRANCH   2   9
HETATM    9  N2  NAG D1381      -5.932 -11.008 -54.827  1.00 64.46    -0.235 NA
HETATM   10  C7  NAG D1381      -5.539  -9.851 -54.256  1.00 63.69     0.252 C 
HETATM   11  O7  NAG D1381      -5.697  -9.618 -53.050  1.00 53.47    -0.271 OA
HETATM   12  C8  NAG D1381      -4.870  -8.854 -55.166  1.00 60.84     0.100 C 
ENDBRANCH   2   9
BRANCH   7  13
HETATM   13  C6  NAG D1381      -8.624 -13.817 -51.446  1.00 63.54     0.214 C 
HETATM   14  O6  NAG D1381     -10.019 -13.467 -51.483  1.00 57.65    -0.218 OA
ENDBRANCH   7  13
TORSDOF 2
ENDMDL
MODEL 5
REMARK VINA RESULT:      -5.5      2.067      4.172
REMARK  2 active torsions:
REMARK  status: ('A' for Active; 'I' for Inactive)
REMARK    1  A    between atoms: C2_2  and  N2_3 
REMARK       I    between atoms: N2_3  and  C7_12 
REMARK    2  A    between atoms: C5_8  and  C6_10 
ROOT
HETATM    1  C1  NAG D1381      -6.873 -11.813 -54.898  1.00 68.49     0.169 C 
HETATM    2  C2  NAG D1381      -6.292 -12.886 -53.978  1.00 69.49     0.169 C 
HETATM    3  C3  NAG D1381      -6.120 -14.164 -54.797  1.00 64.46     0.210 C 
HETATM    4  O3  NAG D1381      -6.034 -15.260 -53.881  1.00 65.48    -0.218 OA
HETATM    5  C4  NAG D1381      -7.291 -14.414 -55.769  1.00 65.82     0.214 C 
HETATM    6  O4  NAG D1381      -6.817 -14.348 -57.133  1.00 63.15    -0.218 OA
HETATM    7  C5  NAG D1381      -8.519 -13.467 -55.628  1.00 65.83     0.181 C 
HETATM    8  O5  NAG D1381      -8.257 -12.192 -55.003  1.00 71.52    -0.349 OA
ENDROOT
BRANCH   2   9
HETATM    9  N2  NAG D1381      -5.111 -12.411 -53.240  1.00 64.46    -0.235 NA
HETATM   10  C7  NAG D1381      -5.083 -12.444 -51.891  1.00 63.69     0.252 C 
HETATM   11  O7  NAG D1381      -6.017 -12.901 -51.219  1.00 53.47    -0.271 OA
HETATM   12  C8  NAG D1381      -3.836 -11.909 -51.238  1.00 60.84     0.100 C 
ENDBRANCH   2   9
BRANCH   7  13
HETATM   13  C6  NAG D1381      -9.693 -14.109 -54.875  1.00 63.54     0.214 C 
HETATM   14  O6  NAG D1381     -10.500 -13.101 -54.239  1.00 57.65    -0.218 OA
ENDBRANCH   7  13
TORSDOF 2
ENDMDL
MODEL 6
REMARK VINA RESULT:      -5.5      2.556      4.248
REMARK  2 active torsions:
REMARK  status: ('A' for Active; 'I' for Inactive)
REMARK    1  A    between atoms: C2_2  and  N2_3 
REMARK       I    between atoms: N2_3  and  C7_12 
REMARK    2  A    between atoms: C5_8  and  C6_10 
ROOT
HETATM    1  C1  NAG D1381      -5.219 -13.724 -53.588  1.00 68.49     0.169 C 
HETATM    2  C2  NAG D1381      -5.726 -12.695 -52.579  1.00 69.49     0.169 C 
HETATM    3  C3  NAG D1381      -6.922 -13.302 -51.849  1.00 64.46     0.210 C 
HETATM    4  O3  NAG D1381      -7.669 -12.228 -51.269  1.00 65.48    -0.218 OA
HETATM    5  C4  NAG D1381      -7.847 -14.109 -52.783  1.00 65.82     0.214 C 
HETATM    6  O4  NAG D1381      -7.835 -15.502 -52.397  1.00 63.15    -0.218 OA
HETATM    7  C5  NAG D1381      -7.537 -14.017 -54.307  1.00 65.83     0.181 C 
HETATM    8  O5  NAG D1381      -6.187 -13.639 -54.650  1.00 71.52    -0.349 OA
ENDROOT
BRANCH   2   9
HETATM    9  N2  NAG D1381      -4.644 -12.155 -51.738  1.00 64.46    -0.235 NA
HETATM   10  C7  NAG D1381      -4.405 -10.828 -51.694  1.00 63.69     0.252 C 
HETATM   11  O7  NAG D1381      -5.093 -10.008 -52.316  1.00 53.47    -0.271 OA
HETATM   12  C8  NAG D1381      -3.258 -10.388 -50.822  1.00 60.84     0.100 C 
ENDBRANCH   2   9
BRANCH   7  13
HETATM   13  C6  NAG D1381      -8.481 -13.066 -55.057  1.00 63.54     0.214 C 
HETATM   14  O6  NAG D1381      -9.698 -12.870 -54.315  1.00 57.65    -0.218 OA
ENDBRANCH   7  13
TORSDOF 2
ENDMDL
MODEL 7
REMARK VINA RESULT:      -5.4      8.615     10.155
REMARK  2 active torsions:
REMARK  status: ('A' for Active; 'I' for Inactive)
REMARK    1  A    between atoms: C2_2  and  N2_3 
REMARK       I    between atoms: N2_3  and  C7_12 
REMARK    2  A    between atoms: C5_8  and  C6_10 
ROOT
HETATM    1  C1  NAG D1381       0.535 -10.802 -48.798  1.00 68.49     0.169 C 
HETATM    2  C2  NAG D1381      -0.508 -11.870 -48.471  1.00 69.49     0.169 C 
HETATM    3  C3  NAG D1381      -0.618 -11.971 -46.952  1.00 64.46     0.210 C 
HETATM    4  O3  NAG D1381      -1.208 -13.237 -46.641  1.00 65.48    -0.218 OA
HETATM    5  C4  NAG D1381       0.748 -11.867 -46.244  1.00 65.82     0.214 C 
HETATM    6  O4  NAG D1381       0.788 -10.674 -45.430  1.00 63.15    -0.218 OA
HETATM    7  C5  NAG D1381       2.004 -11.877 -47.166  1.00 65.83     0.181 C 
HETATM    8  O5  NAG D1381       1.779 -11.475 -48.534  1.00 71.52    -0.349 OA
ENDROOT
BRANCH   2   9
HETATM    9  N2  NAG D1381      -1.765 -11.671 -49.213  1.00 64.46    -0.235 NA
HETATM   10  C7  NAG D1381      -2.140 -12.538 -50.176  1.00 63.69     0.252 C 
HETATM   11  O7  NAG D1381      -1.479 -13.546 -50.456  1.00 53.47    -0.271 OA
HETATM   12  C8  NAG D1381      -3.430 -12.224 -50.888  1.00 60.84     0.100 C 
ENDBRANCH   2   9
BRANCH   7  13
HETATM   13  C6  NAG D1381       2.715 -13.238 -47.203  1.00 63.54     0.214 C 
HETATM   14  O6  NAG D1381       3.419 -13.408 -48.446  1.00 57.65    -0.218 OA
ENDBRANCH   7  13
TORSDOF 2
ENDMDL
MODEL 8
REMARK VINA RESULT:      -5.4     12.467     14.610
REMARK  2 active torsions:
REMARK  status: ('A' for Active; 'I' for Inactive)
REMARK    1  A    between atoms: C2_2  and  N2_3 
REMARK       I    between atoms: N2_3  and  C7_12 
REMARK    2  A    between atoms: C5_8  and  C6_10 
ROOT
HETATM    1  C1  NAG D1381       5.710 -15.762 -62.844  1.00 68.49     0.169 C 
HETATM    2  C2  NAG D1381       5.718 -15.344 -61.374  1.00 69.49     0.169 C 
HETATM    3  C3  NAG D1381       5.205 -16.521 -60.548  1.00 64.46     0.210 C 
HETATM    4  O3  NAG D1381       4.773 -16.010 -59.283  1.00 65.48    -0.218 OA
HETATM    5  C4  NAG D1381       4.027 -17.256 -61.220  1.00 65.82     0.214 C 
HETATM    6  O4  NAG D1381       4.420 -18.606 -61.553  1.00 63.15    -0.218 OA
HETATM    7  C5  NAG D1381       3.435 -16.587 -62.495  1.00 65.83     0.181 C 
HETATM    8  O5  NAG D1381       4.316 -15.682 -63.194  1.00 71.52    -0.349 OA
ENDROOT
BRANCH   2   9
HETATM    9  N2  NAG D1381       7.008 -14.763 -60.965  1.00 64.46    -0.235 NA
HETATM   10  C7  NAG D1381       7.237 -13.439 -61.092  1.00 63.69     0.252 C 
HETATM   11  O7  NAG D1381       6.378 -12.654 -61.516  1.00 53.47    -0.271 OA
HETATM   12  C8  NAG D1381       8.598 -12.956 -60.667  1.00 60.84     0.100 C 
ENDBRANCH   2   9
BRANCH   7  13
HETATM   13  C6  NAG D1381       2.126 -15.829 -62.227  1.00 63.54     0.214 C 
HETATM   14  O6  NAG D1381       1.760 -15.928 -60.839  1.00 57.65    -0.218 OA
ENDBRANCH   7  13
TORSDOF 2
ENDMDL
MODEL 9
REMARK VINA RESULT:      -5.3      2.412      4.308
REMARK  2 active torsions:
REMARK  status: ('A' for Active; 'I' for Inactive)
REMARK    1  A    between atoms: C2_2  and  N2_3 
REMARK       I    between atoms: N2_3  and  C7_12 
REMARK    2  A    between atoms: C5_8  and  C6_10 
ROOT
HETATM    1  C1  NAG D1381      -6.708 -13.877 -52.982  1.00 68.49     0.169 C 
HETATM    2  C2  NAG D1381      -5.888 -12.675 -53.448  1.00 69.49     0.169 C 
HETATM    3  C3  NAG D1381      -6.795 -11.791 -54.302  1.00 64.46     0.210 C 
HETATM    4  O3  NAG D1381      -5.957 -10.952 -55.102  1.00 65.48    -0.218 OA
HETATM    5  C4  NAG D1381      -7.723 -12.603 -55.228  1.00 65.82     0.214 C 
HETATM    6  O4  NAG D1381      -9.101 -12.390 -54.848  1.00 63.15    -0.218 OA
HETATM    7  C5  NAG D1381      -7.461 -14.137 -55.293  1.00 65.83     0.181 C 
HETATM    8  O5  NAG D1381      -6.768 -14.702 -54.159  1.00 71.52    -0.349 OA
ENDROOT
BRANCH   2   9
HETATM    9  N2  NAG D1381      -5.179 -12.016 -52.338  1.00 64.46    -0.235 NA
HETATM   10  C7  NAG D1381      -4.052 -12.554 -51.826  1.00 63.69     0.252 C 
HETATM   11  O7  NAG D1381      -3.546 -13.589 -52.279  1.00 53.47    -0.271 OA
HETATM   12  C8  NAG D1381      -3.424 -11.811 -50.677  1.00 60.84     0.100 C 
ENDBRANCH   2   9
BRANCH   7  13
HETATM   13  C6  NAG D1381      -6.695 -14.565 -56.553  1.00 63.54     0.214 C 
HETATM   14  O6  NAG D1381      -5.313 -14.172 -56.464  1.00 57.65    -0.218 OA
ENDBRANCH   7  13
TORSDOF 2
ENDMDL
