REMARK  6 active torsions:
REMARK  status: ('A' for Active; 'I' for Inactive)
REMARK    1  A    between atoms: CAN_11  and  CAZ_20 
REMARK    2  A    between atoms: CAN_11  and  NAP_21 
REMARK    3  A    between atoms: CAO_12  and  CAV_16 
REMARK    4  A    between atoms: CAO_12  and  CBA_27 
REMARK    5  A    between atoms: CAW_17  and  CAZ_20 
REMARK    6  A    between atoms: NAP_21  and  CBA_27 
ROOT
HETATM    1  CAA AAA A1401     -52.652   4.625  15.326  1.00 49.25     0.031 C 
HETATM    2  CAG AAA A1401     -54.861   1.869  16.634  1.00 45.11    -0.000 A 
HETATM    3  CAH AAA A1401     -54.196   0.725  16.206  1.00 44.49    -0.000 A 
HETATM    4  CAI AAA A1401     -54.351   3.128  16.346  1.00 42.43    -0.005 A 
HETATM    5  CAJ AAA A1401     -53.016   0.844  15.494  1.00 43.77    -0.004 A 
HETATM    6  CAT AAA A1401     -53.173   3.244  15.624  1.00 45.88    -0.026 A 
HETATM    7  CAV AAA A1401     -52.510   2.103  15.186  1.00 45.37    -0.024 A 
ENDROOT
BRANCH   7   8
HETATM    8  CAO AAA A1401     -51.215   2.191  14.408  1.00 48.06     0.048 C 
BRANCH   8   9
HETATM    9  CBA AAA A1401     -51.387   2.223  12.889  1.00 48.78     0.084 C 
HETATM   10  CAC AAA A1401     -52.771   1.786  12.427  1.00 41.07     0.024 C 
HETATM   11  CAB AAA A1401     -51.079   3.618  12.359  1.00 52.25     0.024 C 
BRANCH   9  12
HETATM   12  NAP AAA A1401     -50.406   1.341  12.294  1.00 52.91    -0.296 NA
BRANCH  12  13
HETATM   13  CAN AAA A1401     -50.079   1.530  10.897  1.00 52.99     0.157 C 
BRANCH  13  14
HETATM   14  CAZ AAA A1401     -49.912   0.168  10.246  1.00 56.84     0.200 C 
HETATM   15  OAF AAA A1401     -48.755  -0.452  10.831  1.00 58.88    -0.216 OA
BRANCH  14  16
HETATM   16  CAW AAA A1401     -49.768   0.337   8.774  1.00 54.92     0.034 A 
HETATM   17  CAL AAA A1401     -48.515   0.180   8.193  1.00 50.03     0.002 A 
HETATM   18  CAK AAA A1401     -48.354   0.324   6.818  1.00 47.88     0.029 A 
HETATM   19  CAU AAA A1401     -49.448   0.626   6.014  1.00 48.18     0.150 A 
HETATM   20  CAX AAA A1401     -50.695   0.776   6.585  1.00 53.90     0.132 A 
HETATM   21  OAE AAA A1401     -49.301   0.771   4.667  1.00 43.87    -0.189 OA
HETATM   22  NAQ AAA A1401     -51.758   1.081   5.803  1.00 52.35    -0.206 NA
HETATM   23  CAY AAA A1401     -50.859   0.632   7.952  1.00 57.74     0.113 A 
HETATM   24  CAS AAA A1401     -52.999   0.765   6.160  1.00 54.92     0.287 C 
HETATM   25  OAD AAA A1401     -53.928   0.784   5.368  1.00 55.84    -0.267 OA
HETATM   26  CAM AAA A1401     -53.221   0.373   7.608  1.00 59.97     0.238 C 
HETATM   27  OAR AAA A1401     -52.131   0.805   8.430  1.00 61.06    -0.319 OA
ENDBRANCH  14  16
ENDBRANCH  13  14
ENDBRANCH  12  13
ENDBRANCH   9  12
ENDBRANCH   8   9
ENDBRANCH   7   8
TORSDOF 6
