MODEL 1
REMARK VINA RESULT:      -7.8      0.000      0.000
REMARK  6 active torsions:
REMARK  status: ('A' for Active; 'I' for Inactive)
REMARK    1  A    between atoms: CAN_11  and  CAZ_20 
REMARK    2  A    between atoms: CAN_11  and  NAP_21 
REMARK    3  A    between atoms: CAO_12  and  CAV_16 
REMARK    4  A    between atoms: CAO_12  and  CBA_27 
REMARK    5  A    between atoms: CAW_17  and  CAZ_20 
REMARK    6  A    between atoms: NAP_21  and  CBA_27 
ROOT
HETATM    1  CAA AAA A1401       9.676  -9.422 -24.997  1.00 49.25     0.031 C 
HETATM    2  CAG AAA A1401       6.485  -8.452 -26.748  1.00 45.11    -0.000 A 
HETATM    3  CAH AAA A1401       5.962  -7.483 -25.899  1.00 44.49    -0.000 A 
HETATM    4  CAI AAA A1401       7.691  -9.073 -26.448  1.00 42.43    -0.005 A 
HETATM    5  CAJ AAA A1401       6.651  -7.131 -24.752  1.00 43.77    -0.004 A 
HETATM    6  CAT AAA A1401       8.374  -8.725 -25.293  1.00 45.88    -0.026 A 
HETATM    7  CAV AAA A1401       7.850  -7.763 -24.436  1.00 45.37    -0.024 A 
ENDROOT
BRANCH   7   8
HETATM    8  CAO AAA A1401       8.575  -7.348 -23.175  1.00 48.06     0.048 C 
BRANCH   8   9
HETATM    9  CBA AAA A1401       9.472  -6.120 -23.331  1.00 48.78     0.084 C 
HETATM   10  CAC AAA A1401       9.549  -5.605 -24.763  1.00 41.07     0.024 C 
HETATM   11  CAB AAA A1401       8.999  -5.008 -22.404  1.00 52.25     0.024 C 
BRANCH   9  12
HETATM   12  NAP AAA A1401      10.808  -6.466 -22.896  1.00 52.91    -0.296 NA
BRANCH  12  13
HETATM   13  CAN AAA A1401      11.005  -6.806 -21.504  1.00 52.99     0.157 C 
BRANCH  13  14
HETATM   14  CAZ AAA A1401      11.937  -8.001 -21.419  1.00 56.84     0.200 C 
HETATM   15  OAF AAA A1401      12.013  -8.584 -22.731  1.00 58.88    -0.216 OA
BRANCH  14  16
HETATM   16  CAW AAA A1401      11.417  -8.966 -20.412  1.00 54.92     0.034 A 
HETATM   17  CAL AAA A1401      10.090  -8.874 -20.008  1.00 50.03     0.002 A 
HETATM   18  CAK AAA A1401       9.575  -9.768 -19.074  1.00 47.88     0.029 A 
HETATM   19  CAU AAA A1401      10.386 -10.762 -18.537  1.00 48.18     0.150 A 
HETATM   20  CAX AAA A1401      11.702 -10.861 -18.939  1.00 53.90     0.132 A 
HETATM   21  OAE AAA A1401       9.893 -11.642 -17.620  1.00 43.87    -0.189 OA
HETATM   22  NAQ AAA A1401      12.495 -11.822 -18.408  1.00 52.35    -0.206 NA
HETATM   23  CAY AAA A1401      12.217  -9.975 -19.869  1.00 57.74     0.113 A 
HETATM   24  CAS AAA A1401      13.556 -12.290 -19.059  1.00 54.92     0.287 C 
HETATM   25  OAD AAA A1401      14.117 -13.323 -18.730  1.00 55.84    -0.267 OA
HETATM   26  CAM AAA A1401      14.048 -11.481 -20.244  1.00 59.97     0.238 C 
HETATM   27  OAR AAA A1401      13.535 -10.145 -20.203  1.00 61.06    -0.319 OA
ENDBRANCH  14  16
ENDBRANCH  13  14
ENDBRANCH  12  13
ENDBRANCH   9  12
ENDBRANCH   8   9
ENDBRANCH   7   8
TORSDOF 6
ENDMDL
MODEL 2
REMARK VINA RESULT:      -7.7     15.666     18.002
REMARK  6 active torsions:
REMARK  status: ('A' for Active; 'I' for Inactive)
REMARK    1  A    between atoms: CAN_11  and  CAZ_20 
REMARK    2  A    between atoms: CAN_11  and  NAP_21 
REMARK    3  A    between atoms: CAO_12  and  CAV_16 
REMARK    4  A    between atoms: CAO_12  and  CBA_27 
REMARK    5  A    between atoms: CAW_17  and  CAZ_20 
REMARK    6  A    between atoms: NAP_21  and  CBA_27 
ROOT
HETATM    1  CAA AAA A1401      -1.075 -24.049 -22.125  1.00 49.25     0.031 C 
HETATM    2  CAG AAA A1401       2.204 -22.960 -23.624  1.00 45.11    -0.000 A 
HETATM    3  CAH AAA A1401       2.381 -21.697 -23.070  1.00 44.49    -0.000 A 
HETATM    4  CAI AAA A1401       1.082 -23.716 -23.310  1.00 42.43    -0.005 A 
HETATM    5  CAJ AAA A1401       1.435 -21.194 -22.195  1.00 43.77    -0.004 A 
HETATM    6  CAT AAA A1401       0.131 -23.205 -22.440  1.00 45.88    -0.026 A 
HETATM    7  CAV AAA A1401       0.299 -21.938 -21.890  1.00 45.37    -0.024 A 
ENDROOT
BRANCH   7   8
HETATM    8  CAO AAA A1401      -0.711 -21.354 -20.927  1.00 48.06     0.048 C 
BRANCH   8   9
HETATM    9  CBA AAA A1401      -1.825 -20.543 -21.588  1.00 48.78     0.084 C 
HETATM   10  CAC AAA A1401      -3.193 -21.206 -21.496  1.00 41.07     0.024 C 
HETATM   11  CAB AAA A1401      -1.883 -19.146 -20.981  1.00 52.25     0.024 C 
BRANCH   9  12
HETATM   12  NAP AAA A1401      -1.497 -20.361 -22.986  1.00 52.91    -0.296 NA
BRANCH  12  13
HETATM   13  CAN AAA A1401      -1.302 -19.010 -23.469  1.00 52.99     0.157 C 
BRANCH  13  14
HETATM   14  CAZ AAA A1401      -2.283 -18.751 -24.600  1.00 56.84     0.200 C 
HETATM   15  OAF AAA A1401      -1.515 -18.530 -25.795  1.00 58.88    -0.216 OA
BRANCH  14  16
HETATM   16  CAW AAA A1401      -3.132 -17.576 -24.259  1.00 54.92     0.034 A 
HETATM   17  CAL AAA A1401      -2.756 -16.315 -24.707  1.00 50.03     0.002 A 
HETATM   18  CAK AAA A1401      -3.536 -15.202 -24.410  1.00 47.88     0.029 A 
HETATM   19  CAU AAA A1401      -4.700 -15.343 -23.662  1.00 48.18     0.150 A 
HETATM   20  CAX AAA A1401      -5.082 -16.594 -23.222  1.00 53.90     0.132 A 
HETATM   21  OAE AAA A1401      -5.471 -14.260 -23.364  1.00 43.87    -0.189 OA
HETATM   22  NAQ AAA A1401      -6.210 -16.730 -22.485  1.00 52.35    -0.206 NA
HETATM   23  CAY AAA A1401      -4.309 -17.704 -23.517  1.00 57.74     0.113 A 
HETATM   24  CAS AAA A1401      -6.886 -17.874 -22.450  1.00 54.92     0.287 C 
HETATM   25  OAD AAA A1401      -8.027 -17.942 -22.021  1.00 55.84    -0.267 OA
HETATM   26  CAM AAA A1401      -6.178 -19.109 -22.972  1.00 59.97     0.238 C 
HETATM   27  OAR AAA A1401      -4.762 -18.903 -23.033  1.00 61.06    -0.319 OA
ENDBRANCH  14  16
ENDBRANCH  13  14
ENDBRANCH  12  13
ENDBRANCH   9  12
ENDBRANCH   8   9
ENDBRANCH   7   8
TORSDOF 6
ENDMDL
MODEL 3
REMARK VINA RESULT:      -7.6      3.666      7.432
REMARK  6 active torsions:
REMARK  status: ('A' for Active; 'I' for Inactive)
REMARK    1  A    between atoms: CAN_11  and  CAZ_20 
REMARK    2  A    between atoms: CAN_11  and  NAP_21 
REMARK    3  A    between atoms: CAO_12  and  CAV_16 
REMARK    4  A    between atoms: CAO_12  and  CBA_27 
REMARK    5  A    between atoms: CAW_17  and  CAZ_20 
REMARK    6  A    between atoms: NAP_21  and  CBA_27 
ROOT
HETATM    1  CAA AAA A1401       8.728  -8.706 -18.948  1.00 49.25     0.031 C 
HETATM    2  CAG AAA A1401      11.410 -11.339 -18.692  1.00 45.11    -0.000 A 
HETATM    3  CAH AAA A1401      12.380 -10.863 -19.568  1.00 44.49    -0.000 A 
HETATM    4  CAI AAA A1401      10.231 -10.631 -18.496  1.00 42.43    -0.005 A 
HETATM    5  CAJ AAA A1401      12.170  -9.674 -20.243  1.00 43.77    -0.004 A 
HETATM    6  CAT AAA A1401      10.020  -9.444 -19.181  1.00 45.88    -0.026 A 
HETATM    7  CAV AAA A1401      10.983  -8.970 -20.065  1.00 45.37    -0.024 A 
ENDROOT
BRANCH   7   8
HETATM    8  CAO AAA A1401      10.793  -7.672 -20.819  1.00 48.06     0.048 C 
BRANCH   8   9
HETATM    9  CBA AAA A1401      10.424  -7.841 -22.293  1.00 48.78     0.084 C 
HETATM   10  CAC AAA A1401      11.499  -8.548 -23.109  1.00 41.07     0.024 C 
HETATM   11  CAB AAA A1401       9.103  -8.589 -22.418  1.00 52.25     0.024 C 
BRANCH   9  12
HETATM   12  NAP AAA A1401      10.201  -6.532 -22.868  1.00 52.91    -0.296 NA
BRANCH  12  13
HETATM   13  CAN AAA A1401       8.854  -6.003 -22.855  1.00 52.99     0.157 C 
BRANCH  13  14
HETATM   14  CAZ AAA A1401       8.501  -5.531 -24.255  1.00 56.84     0.200 C 
HETATM   15  OAF AAA A1401       7.549  -4.463 -24.124  1.00 58.88    -0.216 OA
BRANCH  14  16
HETATM   16  CAW AAA A1401       7.953  -6.672 -25.038  1.00 54.92     0.034 A 
HETATM   17  CAL AAA A1401       6.622  -7.036 -24.866  1.00 50.03     0.002 A 
HETATM   18  CAK AAA A1401       6.082  -8.093 -25.592  1.00 47.88     0.029 A 
HETATM   19  CAU AAA A1401       6.871  -8.795 -26.497  1.00 48.18     0.150 A 
HETATM   20  CAX AAA A1401       8.191  -8.433 -26.677  1.00 53.90     0.132 A 
HETATM   21  OAE AAA A1401       6.353  -9.833 -27.212  1.00 43.87    -0.189 OA
HETATM   22  NAQ AAA A1401       8.962  -9.124 -27.550  1.00 52.35    -0.206 NA
HETATM   23  CAY AAA A1401       8.731  -7.381 -25.957  1.00 57.74     0.113 A 
HETATM   24  CAS AAA A1401      10.024  -8.572 -28.130  1.00 54.92     0.287 C 
HETATM   25  OAD AAA A1401      10.565  -9.070 -29.104  1.00 55.84    -0.267 OA
HETATM   26  CAM AAA A1401      10.544  -7.281 -27.528  1.00 59.97     0.238 C 
HETATM   27  OAR AAA A1401      10.050  -7.099 -26.197  1.00 61.06    -0.319 OA
ENDBRANCH  14  16
ENDBRANCH  13  14
ENDBRANCH  12  13
ENDBRANCH   9  12
ENDBRANCH   8   9
ENDBRANCH   7   8
TORSDOF 6
ENDMDL
MODEL 4
REMARK VINA RESULT:      -7.5      3.994      7.244
REMARK  6 active torsions:
REMARK  status: ('A' for Active; 'I' for Inactive)
REMARK    1  A    between atoms: CAN_11  and  CAZ_20 
REMARK    2  A    between atoms: CAN_11  and  NAP_21 
REMARK    3  A    between atoms: CAO_12  and  CAV_16 
REMARK    4  A    between atoms: CAO_12  and  CBA_27 
REMARK    5  A    between atoms: CAW_17  and  CAZ_20 
REMARK    6  A    between atoms: NAP_21  and  CBA_27 
ROOT
HETATM    1  CAA AAA A1401      12.587  -9.216 -20.669  1.00 49.25     0.031 C 
HETATM    2  CAG AAA A1401       9.315  -9.866 -18.920  1.00 45.11    -0.000 A 
HETATM    3  CAH AAA A1401       8.414  -9.144 -19.695  1.00 44.49    -0.000 A 
HETATM    4  CAI AAA A1401      10.665  -9.885 -19.246  1.00 42.43    -0.005 A 
HETATM    5  CAJ AAA A1401       8.866  -8.445 -20.800  1.00 43.77    -0.004 A 
HETATM    6  CAT AAA A1401      11.116  -9.176 -20.348  1.00 45.88    -0.026 A 
HETATM    7  CAV AAA A1401      10.220  -8.445 -21.120  1.00 45.37    -0.024 A 
ENDROOT
BRANCH   7   8
HETATM    8  CAO AAA A1401      10.674  -7.671 -22.338  1.00 48.06     0.048 C 
BRANCH   8   9
HETATM    9  CBA AAA A1401      10.735  -6.155 -22.142  1.00 48.78     0.084 C 
HETATM   10  CAC AAA A1401       9.485  -5.579 -21.490  1.00 41.07     0.024 C 
HETATM   11  CAB AAA A1401      11.965  -5.785 -21.324  1.00 52.25     0.024 C 
BRANCH   9  12
HETATM   12  NAP AAA A1401      10.907  -5.529 -23.435  1.00 52.91    -0.296 NA
BRANCH  12  13
HETATM   13  CAN AAA A1401      10.797  -6.360 -24.615  1.00 52.99     0.157 C 
BRANCH  13  14
HETATM   14  CAZ AAA A1401       9.595  -5.903 -25.423  1.00 56.84     0.200 C 
HETATM   15  OAF AAA A1401       9.064  -4.731 -24.783  1.00 58.88    -0.216 OA
BRANCH  14  16
HETATM   16  CAW AAA A1401       8.595  -7.003 -25.488  1.00 54.92     0.034 A 
HETATM   17  CAL AAA A1401       7.765  -7.230 -24.396  1.00 50.03     0.002 A 
HETATM   18  CAK AAA A1401       6.815  -8.246 -24.434  1.00 47.88     0.029 A 
HETATM   19  CAU AAA A1401       6.689  -9.044 -25.566  1.00 48.18     0.150 A 
HETATM   20  CAX AAA A1401       7.505  -8.818 -26.655  1.00 53.90     0.132 A 
HETATM   21  OAE AAA A1401       5.763 -10.043 -25.613  1.00 43.87    -0.189 OA
HETATM   22  NAQ AAA A1401       7.390  -9.602 -27.754  1.00 52.35    -0.206 NA
HETATM   23  CAY AAA A1401       8.450  -7.807 -26.622  1.00 57.74     0.113 A 
HETATM   24  CAS AAA A1401       7.751  -9.171 -28.958  1.00 54.92     0.287 C 
HETATM   25  OAD AAA A1401       7.412  -9.744 -29.982  1.00 55.84    -0.267 OA
HETATM   26  CAM AAA A1401       8.610  -7.923 -29.015  1.00 59.97     0.238 C 
HETATM   27  OAR AAA A1401       9.220  -7.661 -27.746  1.00 61.06    -0.319 OA
ENDBRANCH  14  16
ENDBRANCH  13  14
ENDBRANCH  12  13
ENDBRANCH   9  12
ENDBRANCH   8   9
ENDBRANCH   7   8
TORSDOF 6
ENDMDL
MODEL 5
REMARK VINA RESULT:      -7.3     15.662     18.025
REMARK  6 active torsions:
REMARK  status: ('A' for Active; 'I' for Inactive)
REMARK    1  A    between atoms: CAN_11  and  CAZ_20 
REMARK    2  A    between atoms: CAN_11  and  NAP_21 
REMARK    3  A    between atoms: CAO_12  and  CAV_16 
REMARK    4  A    between atoms: CAO_12  and  CBA_27 
REMARK    5  A    between atoms: CAW_17  and  CAZ_20 
REMARK    6  A    between atoms: NAP_21  and  CBA_27 
ROOT
HETATM    1  CAA AAA A1401       2.767 -23.023 -23.747  1.00 49.25     0.031 C 
HETATM    2  CAG AAA A1401       0.523 -24.989 -21.447  1.00 45.11    -0.000 A 
HETATM    3  CAH AAA A1401      -0.699 -24.341 -21.597  1.00 44.49    -0.000 A 
HETATM    4  CAI AAA A1401       1.639 -24.556 -22.150  1.00 42.43    -0.005 A 
HETATM    5  CAJ AAA A1401      -0.802 -23.263 -22.457  1.00 43.77    -0.004 A 
HETATM    6  CAT AAA A1401       1.535 -23.468 -23.004  1.00 45.88    -0.026 A 
HETATM    7  CAV AAA A1401       0.318 -22.812 -23.150  1.00 45.37    -0.024 A 
ENDROOT
BRANCH   7   8
HETATM    8  CAO AAA A1401       0.163 -21.631 -24.084  1.00 48.06     0.048 C 
BRANCH   8   9
HETATM    9  CBA AAA A1401       0.260 -20.266 -23.402  1.00 48.78     0.084 C 
HETATM   10  CAC AAA A1401      -0.255 -20.266 -21.969  1.00 41.07     0.024 C 
HETATM   11  CAB AAA A1401       1.700 -19.767 -23.437  1.00 52.25     0.024 C 
BRANCH   9  12
HETATM   12  NAP AAA A1401      -0.514 -19.312 -24.167  1.00 52.91    -0.296 NA
BRANCH  12  13
HETATM   13  CAN AAA A1401      -1.840 -18.977 -23.695  1.00 52.99     0.157 C 
BRANCH  13  14
HETATM   14  CAZ AAA A1401      -2.606 -18.308 -24.823  1.00 56.84     0.200 C 
HETATM   15  OAF AAA A1401      -1.640 -17.787 -25.751  1.00 58.88    -0.216 OA
BRANCH  14  16
HETATM   16  CAW AAA A1401      -3.475 -17.236 -24.264  1.00 54.92     0.034 A 
HETATM   17  CAL AAA A1401      -3.242 -15.915 -24.630  1.00 50.03     0.002 A 
HETATM   18  CAK AAA A1401      -4.045 -14.894 -24.129  1.00 47.88     0.029 A 
HETATM   19  CAU AAA A1401      -5.088 -15.189 -23.257  1.00 48.18     0.150 A 
HETATM   20  CAX AAA A1401      -5.327 -16.500 -22.897  1.00 53.90     0.132 A 
HETATM   21  OAE AAA A1401      -5.879 -14.198 -22.759  1.00 43.87    -0.189 OA
HETATM   22  NAQ AAA A1401      -6.336 -16.785 -22.039  1.00 52.35    -0.206 NA
HETATM   23  CAY AAA A1401      -4.532 -17.517 -23.394  1.00 57.74     0.113 A 
HETATM   24  CAS AAA A1401      -6.928 -17.976 -22.032  1.00 54.92     0.287 C 
HETATM   25  OAD AAA A1401      -7.995 -18.167 -21.471  1.00 55.84    -0.267 OA
HETATM   26  CAM AAA A1401      -6.219 -19.103 -22.758  1.00 59.97     0.238 C 
HETATM   27  OAR AAA A1401      -4.840 -18.785 -22.977  1.00 61.06    -0.319 OA
ENDBRANCH  14  16
ENDBRANCH  13  14
ENDBRANCH  12  13
ENDBRANCH   9  12
ENDBRANCH   8   9
ENDBRANCH   7   8
TORSDOF 6
ENDMDL
MODEL 6
REMARK VINA RESULT:      -7.3      4.820      9.517
REMARK  6 active torsions:
REMARK  status: ('A' for Active; 'I' for Inactive)
REMARK    1  A    between atoms: CAN_11  and  CAZ_20 
REMARK    2  A    between atoms: CAN_11  and  NAP_21 
REMARK    3  A    between atoms: CAO_12  and  CAV_16 
REMARK    4  A    between atoms: CAO_12  and  CBA_27 
REMARK    5  A    between atoms: CAW_17  and  CAZ_20 
REMARK    6  A    between atoms: NAP_21  and  CBA_27 
ROOT
HETATM    1  CAA AAA A1401      11.697  -7.858 -22.313  1.00 49.25     0.031 C 
HETATM    2  CAG AAA A1401      10.075  -9.577 -19.381  1.00 45.11    -0.000 A 
HETATM    3  CAH AAA A1401       8.721  -9.432 -19.662  1.00 44.49    -0.000 A 
HETATM    4  CAI AAA A1401      11.031  -9.066 -20.248  1.00 42.43    -0.005 A 
HETATM    5  CAJ AAA A1401       8.326  -8.779 -20.816  1.00 43.77    -0.004 A 
HETATM    6  CAT AAA A1401      10.633  -8.403 -21.399  1.00 45.88    -0.026 A 
HETATM    7  CAV AAA A1401       9.279  -8.248 -21.679  1.00 45.37    -0.024 A 
ENDROOT
BRANCH   7   8
HETATM    8  CAO AAA A1401       8.807  -7.543 -22.932  1.00 48.06     0.048 C 
BRANCH   8   9
HETATM    9  CBA AAA A1401       8.469  -8.475 -24.096  1.00 48.78     0.084 C 
HETATM   10  CAC AAA A1401       9.685  -9.183 -24.679  1.00 41.07     0.024 C 
HETATM   11  CAB AAA A1401       7.432  -9.502 -23.657  1.00 52.25     0.024 C 
BRANCH   9  12
HETATM   12  NAP AAA A1401       7.845  -7.697 -25.145  1.00 52.91    -0.296 NA
BRANCH  12  13
HETATM   13  CAN AAA A1401       8.274  -7.925 -26.508  1.00 52.99     0.157 C 
BRANCH  13  14
HETATM   14  CAZ AAA A1401       7.049  -7.976 -27.403  1.00 56.84     0.200 C 
HETATM   15  OAF AAA A1401       5.994  -8.606 -26.657  1.00 58.88    -0.216 OA
BRANCH  14  16
HETATM   16  CAW AAA A1401       7.375  -8.727 -28.647  1.00 54.92     0.034 A 
HETATM   17  CAL AAA A1401       7.195 -10.106 -28.673  1.00 50.03     0.002 A 
HETATM   18  CAK AAA A1401       7.484 -10.831 -29.825  1.00 47.88     0.029 A 
HETATM   19  CAU AAA A1401       7.955 -10.180 -30.961  1.00 48.18     0.150 A 
HETATM   20  CAX AAA A1401       8.128  -8.812 -30.942  1.00 53.90     0.132 A 
HETATM   21  OAE AAA A1401       8.243 -10.881 -32.094  1.00 43.87    -0.189 OA
HETATM   22  NAQ AAA A1401       8.596  -8.180 -32.045  1.00 52.35    -0.206 NA
HETATM   23  CAY AAA A1401       7.840  -8.087 -29.798  1.00 57.74     0.113 A 
HETATM   24  CAS AAA A1401       8.332  -6.898 -32.279  1.00 54.92     0.287 C 
HETATM   25  OAD AAA A1401       8.508  -6.388 -33.374  1.00 55.84    -0.267 OA
HETATM   26  CAM AAA A1401       7.793  -6.083 -31.120  1.00 59.97     0.238 C 
HETATM   27  OAR AAA A1401       8.048  -6.735 -29.871  1.00 61.06    -0.319 OA
ENDBRANCH  14  16
ENDBRANCH  13  14
ENDBRANCH  12  13
ENDBRANCH   9  12
ENDBRANCH   8   9
ENDBRANCH   7   8
TORSDOF 6
ENDMDL
MODEL 7
REMARK VINA RESULT:      -7.3      6.780     11.314
REMARK  6 active torsions:
REMARK  status: ('A' for Active; 'I' for Inactive)
REMARK    1  A    between atoms: CAN_11  and  CAZ_20 
REMARK    2  A    between atoms: CAN_11  and  NAP_21 
REMARK    3  A    between atoms: CAO_12  and  CAV_16 
REMARK    4  A    between atoms: CAO_12  and  CBA_27 
REMARK    5  A    between atoms: CAW_17  and  CAZ_20 
REMARK    6  A    between atoms: NAP_21  and  CBA_27 
ROOT
HETATM    1  CAA AAA A1401       6.933  -9.976 -23.790  1.00 49.25     0.031 C 
HETATM    2  CAG AAA A1401       9.265  -7.277 -22.580  1.00 45.11    -0.000 A 
HETATM    3  CAH AAA A1401       9.267  -6.384 -23.647  1.00 44.49    -0.000 A 
HETATM    4  CAI AAA A1401       8.503  -8.436 -22.635  1.00 42.43    -0.005 A 
HETATM    5  CAJ AAA A1401       8.500  -6.652 -24.766  1.00 43.77    -0.004 A 
HETATM    6  CAT AAA A1401       7.743  -8.707 -23.763  1.00 45.88    -0.026 A 
HETATM    7  CAV AAA A1401       7.750  -7.822 -24.835  1.00 45.37    -0.024 A 
ENDROOT
BRANCH   7   8
HETATM    8  CAO AAA A1401       6.922  -8.077 -26.076  1.00 48.06     0.048 C 
BRANCH   8   9
HETATM    9  CBA AAA A1401       7.694  -8.703 -27.238  1.00 48.78     0.084 C 
HETATM   10  CAC AAA A1401       9.058  -9.248 -26.834  1.00 41.07     0.024 C 
HETATM   11  CAB AAA A1401       6.864  -9.807 -27.881  1.00 52.25     0.024 C 
BRANCH   9  12
HETATM   12  NAP AAA A1401       7.887  -7.697 -28.260  1.00 52.91    -0.296 NA
BRANCH  12  13
HETATM   13  CAN AAA A1401       7.437  -7.997 -29.603  1.00 52.99     0.157 C 
BRANCH  13  14
HETATM   14  CAZ AAA A1401       8.600  -7.806 -30.561  1.00 56.84     0.200 C 
HETATM   15  OAF AAA A1401       9.451  -6.787 -30.010  1.00 58.88    -0.216 OA
BRANCH  14  16
HETATM   16  CAW AAA A1401       8.079  -7.429 -31.904  1.00 54.92     0.034 A 
HETATM   17  CAL AAA A1401       7.972  -6.083 -32.236  1.00 50.03     0.002 A 
HETATM   18  CAK AAA A1401       7.496  -5.704 -33.488  1.00 47.88     0.029 A 
HETATM   19  CAU AAA A1401       7.123  -6.670 -34.416  1.00 48.18     0.150 A 
HETATM   20  CAX AAA A1401       7.233  -8.006 -34.094  1.00 53.90     0.132 A 
HETATM   21  OAE AAA A1401       6.654  -6.309 -35.644  1.00 43.87    -0.189 OA
HETATM   22  NAQ AAA A1401       6.860  -8.947 -34.994  1.00 52.35    -0.206 NA
HETATM   23  CAY AAA A1401       7.708  -8.388 -32.850  1.00 57.74     0.113 A 
HETATM   24  CAS AAA A1401       7.370 -10.174 -34.973  1.00 54.92     0.287 C 
HETATM   25  OAD AAA A1401       7.258 -10.941 -35.915  1.00 55.84    -0.267 OA
HETATM   26  CAM AAA A1401       8.109 -10.591 -33.716  1.00 59.97     0.238 C 
HETATM   27  OAR AAA A1401       7.777  -9.736 -32.617  1.00 61.06    -0.319 OA
ENDBRANCH  14  16
ENDBRANCH  13  14
ENDBRANCH  12  13
ENDBRANCH   9  12
ENDBRANCH   8   9
ENDBRANCH   7   8
TORSDOF 6
ENDMDL
MODEL 8
REMARK VINA RESULT:      -7.1      4.006      7.585
REMARK  6 active torsions:
REMARK  status: ('A' for Active; 'I' for Inactive)
REMARK    1  A    between atoms: CAN_11  and  CAZ_20 
REMARK    2  A    between atoms: CAN_11  and  NAP_21 
REMARK    3  A    between atoms: CAO_12  and  CAV_16 
REMARK    4  A    between atoms: CAO_12  and  CBA_27 
REMARK    5  A    between atoms: CAW_17  and  CAZ_20 
REMARK    6  A    between atoms: NAP_21  and  CBA_27 
ROOT
HETATM    1  CAA AAA A1401      12.534  -8.988 -21.234  1.00 49.25     0.031 C 
HETATM    2  CAG AAA A1401       9.903  -9.786 -18.658  1.00 45.11    -0.000 A 
HETATM    3  CAH AAA A1401       8.737  -9.351 -19.279  1.00 44.49    -0.000 A 
HETATM    4  CAI AAA A1401      11.128  -9.666 -19.301  1.00 42.43    -0.005 A 
HETATM    5  CAJ AAA A1401       8.799  -8.802 -20.547  1.00 43.77    -0.004 A 
HETATM    6  CAT AAA A1401      11.188  -9.107 -20.569  1.00 45.88    -0.026 A 
HETATM    7  CAV AAA A1401      10.025  -8.662 -21.188  1.00 45.37    -0.024 A 
ENDROOT
BRANCH   7   8
HETATM    8  CAO AAA A1401      10.051  -8.059 -22.576  1.00 48.06     0.048 C 
BRANCH   8   9
HETATM    9  CBA AAA A1401       9.836  -6.546 -22.616  1.00 48.78     0.084 C 
HETATM   10  CAC AAA A1401       9.569  -5.936 -21.246  1.00 41.07     0.024 C 
HETATM   11  CAB AAA A1401      11.036  -5.866 -23.263  1.00 52.25     0.024 C 
BRANCH   9  12
HETATM   12  NAP AAA A1401       8.703  -6.262 -23.471  1.00 52.91    -0.296 NA
BRANCH  12  13
HETATM   13  CAN AAA A1401       7.918  -7.378 -23.954  1.00 52.99     0.157 C 
BRANCH  13  14
HETATM   14  CAZ AAA A1401       7.220  -6.965 -25.237  1.00 56.84     0.200 C 
HETATM   15  OAF AAA A1401       5.809  -6.921 -24.968  1.00 58.88    -0.216 OA
BRANCH  14  16
HETATM   16  CAW AAA A1401       7.550  -7.936 -26.316  1.00 54.92     0.034 A 
HETATM   17  CAL AAA A1401       6.595  -8.869 -26.703  1.00 50.03     0.002 A 
HETATM   18  CAK AAA A1401       6.875  -9.784 -27.714  1.00 47.88     0.029 A 
HETATM   19  CAU AAA A1401       8.114  -9.770 -28.346  1.00 48.18     0.150 A 
HETATM   20  CAX AAA A1401       9.062  -8.842 -27.970  1.00 53.90     0.132 A 
HETATM   21  OAE AAA A1401       8.399 -10.662 -29.336  1.00 43.87    -0.189 OA
HETATM   22  NAQ AAA A1401      10.273  -8.836 -28.578  1.00 52.35    -0.206 NA
HETATM   23  CAY AAA A1401       8.787  -7.930 -26.966  1.00 57.74     0.113 A 
HETATM   24  CAS AAA A1401      11.016  -7.735 -28.639  1.00 54.92     0.287 C 
HETATM   25  OAD AAA A1401      11.966  -7.635 -29.399  1.00 55.84    -0.267 OA
HETATM   26  CAM AAA A1401      10.634  -6.593 -27.718  1.00 59.97     0.238 C 
HETATM   27  OAR AAA A1401       9.791  -7.051 -26.655  1.00 61.06    -0.319 OA
ENDBRANCH  14  16
ENDBRANCH  13  14
ENDBRANCH  12  13
ENDBRANCH   9  12
ENDBRANCH   8   9
ENDBRANCH   7   8
TORSDOF 6
ENDMDL
MODEL 9
REMARK VINA RESULT:      -7.1     15.860     18.308
REMARK  6 active torsions:
REMARK  status: ('A' for Active; 'I' for Inactive)
REMARK    1  A    between atoms: CAN_11  and  CAZ_20 
REMARK    2  A    between atoms: CAN_11  and  NAP_21 
REMARK    3  A    between atoms: CAO_12  and  CAV_16 
REMARK    4  A    between atoms: CAO_12  and  CBA_27 
REMARK    5  A    between atoms: CAW_17  and  CAZ_20 
REMARK    6  A    between atoms: NAP_21  and  CBA_27 
ROOT
HETATM    1  CAA AAA A1401       1.225 -23.846 -22.214  1.00 49.25     0.031 C 
HETATM    2  CAG AAA A1401       2.219 -20.313 -23.062  1.00 45.11    -0.000 A 
HETATM    3  CAH AAA A1401       0.990 -19.703 -23.289  1.00 44.49    -0.000 A 
HETATM    4  CAI AAA A1401       2.284 -21.655 -22.712  1.00 42.43    -0.005 A 
HETATM    5  CAJ AAA A1401      -0.174 -20.438 -23.158  1.00 43.77    -0.004 A 
HETATM    6  CAT AAA A1401       1.116 -22.392 -22.591  1.00 45.88    -0.026 A 
HETATM    7  CAV AAA A1401      -0.115 -21.788 -22.826  1.00 45.37    -0.024 A 
ENDROOT
BRANCH   7   8
HETATM    8  CAO AAA A1401      -1.411 -22.557 -22.690  1.00 48.06     0.048 C 
BRANCH   8   9
HETATM    9  CBA AAA A1401      -2.078 -22.440 -21.319  1.00 48.78     0.084 C 
HETATM   10  CAC AAA A1401      -2.153 -23.762 -20.567  1.00 41.07     0.024 C 
HETATM   11  CAB AAA A1401      -1.352 -21.402 -20.473  1.00 52.25     0.024 C 
BRANCH   9  12
HETATM   12  NAP AAA A1401      -3.424 -21.940 -21.502  1.00 52.91    -0.296 NA
BRANCH  12  13
HETATM   13  CAN AAA A1401      -3.642 -20.514 -21.389  1.00 52.99     0.157 C 
BRANCH  13  14
HETATM   14  CAZ AAA A1401      -4.685 -20.097 -22.411  1.00 56.84     0.200 C 
HETATM   15  OAF AAA A1401      -4.718 -21.107 -23.433  1.00 58.88    -0.216 OA
BRANCH  14  16
HETATM   16  CAW AAA A1401      -4.332 -18.760 -22.962  1.00 54.92     0.034 A 
HETATM   17  CAL AAA A1401      -3.394 -18.674 -23.984  1.00 50.03     0.002 A 
HETATM   18  CAK AAA A1401      -3.052 -17.437 -24.524  1.00 47.88     0.029 A 
HETATM   19  CAU AAA A1401      -3.649 -16.276 -24.043  1.00 48.18     0.150 A 
HETATM   20  CAX AAA A1401      -4.586 -16.357 -23.034  1.00 53.90     0.132 A 
HETATM   21  OAE AAA A1401      -3.320 -15.060 -24.563  1.00 43.87    -0.189 OA
HETATM   22  NAQ AAA A1401      -5.158 -15.225 -22.559  1.00 52.35    -0.206 NA
HETATM   23  CAY AAA A1401      -4.929 -17.586 -22.496  1.00 57.74     0.113 A 
HETATM   24  CAS AAA A1401      -6.357 -15.239 -21.985  1.00 54.92     0.287 C 
HETATM   25  OAD AAA A1401      -7.000 -14.218 -21.797  1.00 55.84    -0.267 OA
HETATM   26  CAM AAA A1401      -6.906 -16.589 -21.567  1.00 59.97     0.238 C 
HETATM   27  OAR AAA A1401      -5.863 -17.568 -21.494  1.00 61.06    -0.319 OA
ENDBRANCH  14  16
ENDBRANCH  13  14
ENDBRANCH  12  13
ENDBRANCH   9  12
ENDBRANCH   8   9
ENDBRANCH   7   8
TORSDOF 6
ENDMDL
