REMARK  6 active torsions:
REMARK  status: ('A' for Active; 'I' for Inactive)
REMARK    1  A    between atoms: CAB_2  and  NAL_19 
REMARK    2  A    between atoms: CAB_2  and  CAD_4 
REMARK    3  A    between atoms: CAD_4  and  CAE_5 
REMARK    4  A    between atoms: CAM_11  and  CAN_12 
REMARK    5  A    between atoms: CAM_11  and  NAL_19 
REMARK    6  A    between atoms: CAN_12  and  CAP_13 
ROOT
HETATM    1  CAA AAA A1401     -38.608  26.686  12.971  1.00 64.07     0.024 C 
HETATM    2  CAB AAA A1401     -39.660  25.644  13.338  1.00 67.24     0.084 C 
HETATM    3  CAC AAA A1401     -41.031  26.075  12.833  1.00 67.04     0.024 C 
ENDROOT
BRANCH   2   4
HETATM    4  NAL AAA A1401     -39.309  24.417  12.652  1.00 64.63    -0.296 NA
BRANCH   4   5
HETATM    5  CAM AAA A1401     -39.233  24.432  11.204  1.00 66.87     0.157 C 
BRANCH   5   6
HETATM    6  CAN AAA A1401     -39.285  23.016  10.644  1.00 67.52     0.198 C 
HETATM    7  OAO AAA A1401     -38.216  22.233  11.188  1.00 65.32    -0.216 OA
BRANCH   6   8
HETATM    8  CAP AAA A1401     -39.204  23.098   9.167  1.00 68.74     0.012 A 
HETATM    9  CAW AAA A1401     -39.966  24.047   8.498  1.00 71.66     0.028 A 
HETATM   10  CAU AAA A1401     -39.909  24.141   7.113  1.00 75.98     0.156 A 
HETATM   11  CAS AAA A1401     -39.092  23.286   6.395  1.00 74.39     0.156 A 
HETATM   12  OAV AAA A1401     -40.657  25.076   6.464  1.00 78.60    -0.188 OA
HETATM   13  CAR AAA A1401     -38.330  22.333   7.061  1.00 75.68     0.029 A 
HETATM   14  OAT AAA A1401     -39.038  23.382   5.036  1.00 64.73    -0.188 OA
HETATM   15  CAQ AAA A1401     -38.387  22.234   8.448  1.00 71.58     0.001 A 
ENDBRANCH   6   8
ENDBRANCH   5   6
ENDBRANCH   4   5
ENDBRANCH   2   4
BRANCH   2  16
HETATM   16  CAD AAA A1401     -39.684  25.375  14.845  1.00 67.67     0.048 C 
BRANCH  16  17
HETATM   17  CAE AAA A1401     -40.516  26.374  15.626  1.00 65.89    -0.020 A 
HETATM   18  CAK AAA A1401     -41.733  25.974  16.171  1.00 66.37    -0.002 A 
HETATM   19  CAJ AAA A1401     -42.505  26.873  16.896  1.00 72.28     0.027 A 
HETATM   20  CAH AAA A1401     -42.059  28.174  17.095  1.00 74.86     0.131 A 
HETATM   21  CAG AAA A1401     -40.838  28.575  16.563  1.00 69.94     0.027 A 
HETATM   22  OAI AAA A1401     -42.816  29.054  17.808  1.00 77.74    -0.190 OA
HETATM   23  CAF AAA A1401     -40.068  27.675  15.837  1.00 65.48    -0.002 A 
ENDBRANCH  16  17
ENDBRANCH   2  16
TORSDOF 6
