MODEL 1
REMARK VINA RESULT:      -9.2      0.000      0.000
REMARK  6 active torsions:
REMARK  status: ('A' for Active; 'I' for Inactive)
REMARK    1  A    between atoms: CAB_2  and  NAL_19 
REMARK    2  A    between atoms: CAB_2  and  CAD_4 
REMARK    3  A    between atoms: CAD_4  and  CAE_5 
REMARK    4  A    between atoms: CAM_11  and  CAN_12 
REMARK    5  A    between atoms: CAM_11  and  NAL_19 
REMARK    6  A    between atoms: CAN_12  and  CAP_13 
ROOT
HETATM    1  CAA AAA A1401      -6.378 -12.753 -55.586  1.00 64.07     0.024 C 
HETATM    2  CAB AAA A1401      -6.170 -14.207 -55.997  1.00 67.24     0.084 C 
HETATM    3  CAC AAA A1401      -7.035 -14.546 -57.204  1.00 67.04     0.024 C 
ENDROOT
BRANCH   2   4
HETATM    4  NAL AAA A1401      -4.785 -14.347 -56.400  1.00 64.63    -0.296 NA
BRANCH   4   5
HETATM    5  CAM AAA A1401      -4.374 -15.578 -57.046  1.00 66.87     0.157 C 
BRANCH   5   6
HETATM    6  CAN AAA A1401      -3.201 -15.332 -57.987  1.00 67.52     0.198 C 
HETATM    7  OAO AAA A1401      -3.523 -14.282 -58.908  1.00 65.32    -0.216 OA
BRANCH   6   8
HETATM    8  CAP AAA A1401      -2.896 -16.599 -58.690  1.00 68.74     0.012 A 
HETATM    9  CAW AAA A1401      -2.532 -17.715 -57.948  1.00 71.66     0.028 A 
HETATM   10  CAU AAA A1401      -2.238 -18.915 -58.585  1.00 75.98     0.156 A 
HETATM   11  CAS AAA A1401      -2.306 -19.000 -59.964  1.00 74.39     0.156 A 
HETATM   12  OAV AAA A1401      -1.884 -20.005 -57.850  1.00 78.60    -0.188 OA
HETATM   13  CAR AAA A1401      -2.667 -17.884 -60.710  1.00 75.68     0.029 A 
HETATM   14  OAT AAA A1401      -2.018 -20.178 -60.585  1.00 64.73    -0.188 OA
HETATM   15  CAQ AAA A1401      -2.959 -16.680 -60.076  1.00 71.58     0.001 A 
ENDBRANCH   6   8
ENDBRANCH   5   6
ENDBRANCH   4   5
ENDBRANCH   2   4
BRANCH   2  16
HETATM   16  CAD AAA A1401      -6.442 -15.165 -54.834  1.00 67.67     0.048 C 
BRANCH  16  17
HETATM   17  CAE AAA A1401      -7.465 -14.642 -53.844  1.00 65.89    -0.020 A 
HETATM   18  CAK AAA A1401      -8.722 -14.255 -54.299  1.00 66.37    -0.002 A 
HETATM   19  CAJ AAA A1401      -9.675 -13.780 -53.406  1.00 72.28     0.027 A 
HETATM   20  CAH AAA A1401      -9.382 -13.704 -52.049  1.00 74.86     0.131 A 
HETATM   21  CAG AAA A1401      -8.132 -14.101 -51.588  1.00 69.94     0.027 A 
HETATM   22  OAI AAA A1401     -10.318 -13.240 -51.174  1.00 77.74    -0.190 OA
HETATM   23  CAF AAA A1401      -7.180 -14.574 -52.483  1.00 65.48    -0.002 A 
ENDBRANCH  16  17
ENDBRANCH   2  16
TORSDOF 6
ENDMDL
MODEL 2
REMARK VINA RESULT:      -9.1      6.570      9.476
REMARK  6 active torsions:
REMARK  status: ('A' for Active; 'I' for Inactive)
REMARK    1  A    between atoms: CAB_2  and  NAL_19 
REMARK    2  A    between atoms: CAB_2  and  CAD_4 
REMARK    3  A    between atoms: CAD_4  and  CAE_5 
REMARK    4  A    between atoms: CAM_11  and  CAN_12 
REMARK    5  A    between atoms: CAM_11  and  NAL_19 
REMARK    6  A    between atoms: CAN_12  and  CAP_13 
ROOT
HETATM    1  CAA AAA A1401      -2.544 -10.785 -49.934  1.00 64.07     0.024 C 
HETATM    2  CAB AAA A1401      -2.639 -12.305 -50.025  1.00 67.24     0.084 C 
HETATM    3  CAC AAA A1401      -3.494 -12.851 -48.888  1.00 67.04     0.024 C 
ENDROOT
BRANCH   2   4
HETATM    4  NAL AAA A1401      -3.314 -12.621 -51.267  1.00 64.63    -0.296 NA
BRANCH   4   5
HETATM    5  CAM AAA A1401      -4.749 -12.426 -51.344  1.00 66.87     0.157 C 
BRANCH   5   6
HETATM    6  CAN AAA A1401      -5.117 -11.582 -52.558  1.00 67.52     0.198 C 
HETATM    7  OAO AAA A1401      -5.275 -10.211 -52.174  1.00 65.32    -0.216 OA
BRANCH   6   8
HETATM    8  CAP AAA A1401      -6.362 -12.131 -53.144  1.00 68.74     0.012 A 
HETATM    9  CAW AAA A1401      -7.209 -12.890 -52.347  1.00 71.66     0.028 A 
HETATM   10  CAU AAA A1401      -8.381 -13.418 -52.875  1.00 75.98     0.156 A 
HETATM   11  CAS AAA A1401      -8.706 -13.190 -54.201  1.00 74.39     0.156 A 
HETATM   12  OAV AAA A1401      -9.209 -14.158 -52.087  1.00 78.60    -0.188 OA
HETATM   13  CAR AAA A1401      -7.859 -12.434 -55.002  1.00 75.68     0.029 A 
HETATM   14  OAT AAA A1401      -9.857 -13.709 -54.715  1.00 64.73    -0.188 OA
HETATM   15  CAQ AAA A1401      -6.683 -11.906 -54.477  1.00 71.58     0.001 A 
ENDBRANCH   6   8
ENDBRANCH   5   6
ENDBRANCH   4   5
ENDBRANCH   2   4
BRANCH   2  16
HETATM   16  CAD AAA A1401      -1.254 -12.956 -50.039  1.00 67.67     0.048 C 
BRANCH  16  17
HETATM   17  CAE AAA A1401      -0.318 -12.413 -48.976  1.00 65.89    -0.020 A 
HETATM   18  CAK AAA A1401      -0.571 -12.690 -47.635  1.00 66.37    -0.002 A 
HETATM   19  CAJ AAA A1401       0.280 -12.207 -46.648  1.00 72.28     0.027 A 
HETATM   20  CAH AAA A1401       1.398 -11.458 -46.995  1.00 74.86     0.131 A 
HETATM   21  CAG AAA A1401       1.661 -11.190 -48.334  1.00 69.94     0.027 A 
HETATM   22  OAI AAA A1401       2.232 -10.988 -46.026  1.00 77.74    -0.190 OA
HETATM   23  CAF AAA A1401       0.809 -11.672 -49.320  1.00 65.48    -0.002 A 
ENDBRANCH  16  17
ENDBRANCH   2  16
TORSDOF 6
ENDMDL
MODEL 3
REMARK VINA RESULT:      -9.0      0.646      1.463
REMARK  6 active torsions:
REMARK  status: ('A' for Active; 'I' for Inactive)
REMARK    1  A    between atoms: CAB_2  and  NAL_19 
REMARK    2  A    between atoms: CAB_2  and  CAD_4 
REMARK    3  A    between atoms: CAD_4  and  CAE_5 
REMARK    4  A    between atoms: CAM_11  and  CAN_12 
REMARK    5  A    between atoms: CAM_11  and  NAL_19 
REMARK    6  A    between atoms: CAN_12  and  CAP_13 
ROOT
HETATM    1  CAA AAA A1401      -7.260 -14.806 -57.377  1.00 64.07     0.024 C 
HETATM    2  CAB AAA A1401      -6.202 -14.442 -56.340  1.00 67.24     0.084 C 
HETATM    3  CAC AAA A1401      -6.048 -15.567 -55.324  1.00 67.04     0.024 C 
ENDROOT
BRANCH   2   4
HETATM    4  NAL AAA A1401      -4.940 -14.311 -57.039  1.00 64.63    -0.296 NA
BRANCH   4   5
HETATM    5  CAM AAA A1401      -4.052 -15.456 -57.083  1.00 66.87     0.157 C 
BRANCH   5   6
HETATM    6  CAN AAA A1401      -2.984 -15.272 -58.155  1.00 67.52     0.198 C 
HETATM    7  OAO AAA A1401      -3.391 -14.263 -59.086  1.00 65.32    -0.216 OA
BRANCH   6   8
HETATM    8  CAP AAA A1401      -2.769 -16.576 -58.823  1.00 68.74     0.012 A 
HETATM    9  CAW AAA A1401      -2.423 -17.682 -58.057  1.00 71.66     0.028 A 
HETATM   10  CAU AAA A1401      -2.213 -18.915 -58.662  1.00 75.98     0.156 A 
HETATM   11  CAS AAA A1401      -2.346 -19.044 -60.033  1.00 74.39     0.156 A 
HETATM   12  OAV AAA A1401      -1.876 -19.995 -57.904  1.00 78.60    -0.188 OA
HETATM   13  CAR AAA A1401      -2.690 -17.939 -60.803  1.00 75.68     0.029 A 
HETATM   14  OAT AAA A1401      -2.140 -20.256 -60.623  1.00 64.73    -0.188 OA
HETATM   15  CAQ AAA A1401      -2.898 -16.702 -60.201  1.00 71.58     0.001 A 
ENDBRANCH   6   8
ENDBRANCH   5   6
ENDBRANCH   4   5
ENDBRANCH   2   4
BRANCH   2  16
HETATM   16  CAD AAA A1401      -6.523 -13.114 -55.650  1.00 67.67     0.048 C 
BRANCH  16  17
HETATM   17  CAE AAA A1401      -7.532 -13.243 -54.525  1.00 65.89    -0.020 A 
HETATM   18  CAK AAA A1401      -7.112 -13.078 -53.208  1.00 66.37    -0.002 A 
HETATM   19  CAJ AAA A1401      -8.023 -13.185 -52.164  1.00 72.28     0.027 A 
HETATM   20  CAH AAA A1401      -9.363 -13.441 -52.431  1.00 74.86     0.131 A 
HETATM   21  CAG AAA A1401      -9.789 -13.594 -53.746  1.00 69.94     0.027 A 
HETATM   22  OAI AAA A1401     -10.256 -13.544 -51.407  1.00 77.74    -0.190 OA
HETATM   23  CAF AAA A1401      -8.876 -13.488 -54.788  1.00 65.48    -0.002 A 
ENDBRANCH  16  17
ENDBRANCH   2  16
TORSDOF 6
ENDMDL
MODEL 4
REMARK VINA RESULT:      -8.9      6.261      8.607
REMARK  6 active torsions:
REMARK  status: ('A' for Active; 'I' for Inactive)
REMARK    1  A    between atoms: CAB_2  and  NAL_19 
REMARK    2  A    between atoms: CAB_2  and  CAD_4 
REMARK    3  A    between atoms: CAD_4  and  CAE_5 
REMARK    4  A    between atoms: CAM_11  and  CAN_12 
REMARK    5  A    between atoms: CAM_11  and  NAL_19 
REMARK    6  A    between atoms: CAN_12  and  CAP_13 
ROOT
HETATM    1  CAA AAA A1401      -2.210 -13.282 -51.079  1.00 64.07     0.024 C 
HETATM    2  CAB AAA A1401      -3.034 -12.397 -50.149  1.00 67.24     0.084 C 
HETATM    3  CAC AAA A1401      -2.618 -10.939 -50.298  1.00 67.04     0.024 C 
ENDROOT
BRANCH   2   4
HETATM    4  NAL AAA A1401      -4.417 -12.500 -50.570  1.00 64.63    -0.296 NA
BRANCH   4   5
HETATM    5  CAM AAA A1401      -4.763 -12.082 -51.915  1.00 66.87     0.157 C 
BRANCH   5   6
HETATM    6  CAN AAA A1401      -6.224 -12.389 -52.219  1.00 67.52     0.198 C 
HETATM    7  OAO AAA A1401      -6.786 -13.188 -51.172  1.00 65.32    -0.216 OA
BRANCH   6   8
HETATM    8  CAP AAA A1401      -6.290 -13.080 -53.528  1.00 68.74     0.012 A 
HETATM    9  CAW AAA A1401      -7.061 -12.532 -54.545  1.00 71.66     0.028 A 
HETATM   10  CAU AAA A1401      -7.141 -13.164 -55.780  1.00 75.98     0.156 A 
HETATM   11  CAS AAA A1401      -6.452 -14.343 -55.999  1.00 74.39     0.156 A 
HETATM   12  OAV AAA A1401      -7.896 -12.619 -56.774  1.00 78.60    -0.188 OA
HETATM   13  CAR AAA A1401      -5.682 -14.896 -54.983  1.00 75.68     0.029 A 
HETATM   14  OAT AAA A1401      -6.532 -14.959 -57.213  1.00 64.73    -0.188 OA
HETATM   15  CAQ AAA A1401      -5.602 -14.268 -53.743  1.00 71.58     0.001 A 
ENDBRANCH   6   8
ENDBRANCH   5   6
ENDBRANCH   4   5
ENDBRANCH   2   4
BRANCH   2  16
HETATM   16  CAD AAA A1401      -2.928 -12.858 -48.693  1.00 67.67     0.048 C 
BRANCH  16  17
HETATM   17  CAE AAA A1401      -1.615 -12.485 -48.033  1.00 65.89    -0.020 A 
HETATM   18  CAK AAA A1401      -1.627 -11.763 -46.843  1.00 66.37    -0.002 A 
HETATM   19  CAJ AAA A1401      -0.433 -11.420 -46.220  1.00 72.28     0.027 A 
HETATM   20  CAH AAA A1401       0.780 -11.809 -46.774  1.00 74.86     0.131 A 
HETATM   21  CAG AAA A1401       0.797 -12.541 -47.957  1.00 69.94     0.027 A 
HETATM   22  OAI AAA A1401       1.950 -11.473 -46.161  1.00 77.74    -0.190 OA
HETATM   23  CAF AAA A1401      -0.397 -12.882 -48.579  1.00 65.48    -0.002 A 
ENDBRANCH  16  17
ENDBRANCH   2  16
TORSDOF 6
ENDMDL
MODEL 5
REMARK VINA RESULT:      -8.9      6.659      9.236
REMARK  6 active torsions:
REMARK  status: ('A' for Active; 'I' for Inactive)
REMARK    1  A    between atoms: CAB_2  and  NAL_19 
REMARK    2  A    between atoms: CAB_2  and  CAD_4 
REMARK    3  A    between atoms: CAD_4  and  CAE_5 
REMARK    4  A    between atoms: CAM_11  and  CAN_12 
REMARK    5  A    between atoms: CAM_11  and  NAL_19 
REMARK    6  A    between atoms: CAN_12  and  CAP_13 
ROOT
HETATM    1  CAA AAA A1401      -5.699 -12.658 -50.936  1.00 64.07     0.024 C 
HETATM    2  CAB AAA A1401      -4.589 -12.310 -51.924  1.00 67.24     0.084 C 
HETATM    3  CAC AAA A1401      -4.547 -10.807 -52.166  1.00 67.04     0.024 C 
ENDROOT
BRANCH   2   4
HETATM    4  NAL AAA A1401      -3.332 -12.688 -51.310  1.00 64.63    -0.296 NA
BRANCH   4   5
HETATM    5  CAM AAA A1401      -2.935 -12.025 -50.083  1.00 66.87     0.157 C 
BRANCH   5   6
HETATM    6  CAN AAA A1401      -2.568 -13.043 -49.011  1.00 67.52     0.198 C 
HETATM    7  OAO AAA A1401      -3.658 -13.208 -48.096  1.00 65.32    -0.216 OA
BRANCH   6   8
HETATM    8  CAP AAA A1401      -1.345 -12.571 -48.322  1.00 68.74     0.012 A 
HETATM    9  CAW AAA A1401      -0.105 -12.819 -48.896  1.00 71.66     0.028 A 
HETATM   10  CAU AAA A1401       1.057 -12.389 -48.266  1.00 75.98     0.156 A 
HETATM   11  CAS AAA A1401       0.981 -11.711 -47.063  1.00 74.39     0.156 A 
HETATM   12  OAV AAA A1401       2.269 -12.634 -48.837  1.00 78.60    -0.188 OA
HETATM   13  CAR AAA A1401      -0.259 -11.463 -46.484  1.00 75.68     0.029 A 
HETATM   14  OAT AAA A1401       2.123 -11.289 -46.449  1.00 64.73    -0.188 OA
HETATM   15  CAQ AAA A1401      -1.424 -11.896 -47.110  1.00 71.58     0.001 A 
ENDBRANCH   6   8
ENDBRANCH   5   6
ENDBRANCH   4   5
ENDBRANCH   2   4
BRANCH   2  16
HETATM   16  CAD AAA A1401      -4.745 -13.079 -53.239  1.00 67.67     0.048 C 
BRANCH  16  17
HETATM   17  CAE AAA A1401      -6.187 -13.247 -53.675  1.00 65.89    -0.020 A 
HETATM   18  CAK AAA A1401      -6.750 -12.323 -54.552  1.00 66.37    -0.002 A 
HETATM   19  CAJ AAA A1401      -8.067 -12.466 -54.969  1.00 72.28     0.027 A 
HETATM   20  CAH AAA A1401      -8.827 -13.541 -54.526  1.00 74.86     0.131 A 
HETATM   21  CAG AAA A1401      -8.266 -14.474 -53.659  1.00 69.94     0.027 A 
HETATM   22  OAI AAA A1401     -10.119 -13.681 -54.937  1.00 77.74    -0.190 OA
HETATM   23  CAF AAA A1401      -6.949 -14.329 -53.242  1.00 65.48    -0.002 A 
ENDBRANCH  16  17
ENDBRANCH   2  16
TORSDOF 6
ENDMDL
MODEL 6
REMARK VINA RESULT:      -8.0      2.252      8.843
REMARK  6 active torsions:
REMARK  status: ('A' for Active; 'I' for Inactive)
REMARK    1  A    between atoms: CAB_2  and  NAL_19 
REMARK    2  A    between atoms: CAB_2  and  CAD_4 
REMARK    3  A    between atoms: CAD_4  and  CAE_5 
REMARK    4  A    between atoms: CAM_11  and  CAN_12 
REMARK    5  A    between atoms: CAM_11  and  NAL_19 
REMARK    6  A    between atoms: CAN_12  and  CAP_13 
ROOT
HETATM    1  CAA AAA A1401      -1.637 -16.057 -57.009  1.00 64.07     0.024 C 
HETATM    2  CAB AAA A1401      -2.834 -16.436 -57.875  1.00 67.24     0.084 C 
HETATM    3  CAC AAA A1401      -2.701 -17.873 -58.363  1.00 67.04     0.024 C 
ENDROOT
BRANCH   2   4
HETATM    4  NAL AAA A1401      -4.013 -16.368 -57.035  1.00 64.63    -0.296 NA
BRANCH   4   5
HETATM    5  CAM AAA A1401      -4.498 -15.063 -56.630  1.00 66.87     0.157 C 
BRANCH   5   6
HETATM    6  CAN AAA A1401      -6.017 -15.064 -56.511  1.00 67.52     0.198 C 
HETATM    7  OAO AAA A1401      -6.595 -14.325 -57.593  1.00 65.32    -0.216 OA
BRANCH   6   8
HETATM    8  CAP AAA A1401      -6.380 -14.481 -55.198  1.00 68.74     0.012 A 
HETATM    9  CAW AAA A1401      -7.706 -14.155 -54.944  1.00 71.66     0.028 A 
HETATM   10  CAU AAA A1401      -8.069 -13.604 -53.721  1.00 75.98     0.156 A 
HETATM   11  CAS AAA A1401      -7.109 -13.377 -52.752  1.00 74.39     0.156 A 
HETATM   12  OAV AAA A1401      -9.372 -13.290 -53.478  1.00 78.60    -0.188 OA
HETATM   13  CAR AAA A1401      -5.780 -13.700 -53.003  1.00 75.68     0.029 A 
HETATM   14  OAT AAA A1401      -7.469 -12.838 -51.553  1.00 64.73    -0.188 OA
HETATM   15  CAQ AAA A1401      -5.412 -14.249 -54.228  1.00 71.58     0.001 A 
ENDBRANCH   6   8
ENDBRANCH   5   6
ENDBRANCH   4   5
ENDBRANCH   2   4
BRANCH   2  16
HETATM   16  CAD AAA A1401      -3.010 -15.467 -59.048  1.00 67.67     0.048 C 
BRANCH  16  17
HETATM   17  CAE AAA A1401      -2.837 -16.121 -60.405  1.00 65.89    -0.020 A 
HETATM   18  CAK AAA A1401      -3.890 -16.098 -61.316  1.00 66.37    -0.002 A 
HETATM   19  CAJ AAA A1401      -3.747 -16.685 -62.567  1.00 72.28     0.027 A 
HETATM   20  CAH AAA A1401      -2.545 -17.284 -62.923  1.00 74.86     0.131 A 
HETATM   21  CAG AAA A1401      -1.486 -17.299 -62.022  1.00 69.94     0.027 A 
HETATM   22  OAI AAA A1401      -2.406 -17.857 -64.151  1.00 77.74    -0.190 OA
HETATM   23  CAF AAA A1401      -1.631 -16.713 -60.771  1.00 65.48    -0.002 A 
ENDBRANCH  16  17
ENDBRANCH   2  16
TORSDOF 6
ENDMDL
MODEL 7
REMARK VINA RESULT:      -7.8      3.224      3.955
REMARK  6 active torsions:
REMARK  status: ('A' for Active; 'I' for Inactive)
REMARK    1  A    between atoms: CAB_2  and  NAL_19 
REMARK    2  A    between atoms: CAB_2  and  CAD_4 
REMARK    3  A    between atoms: CAD_4  and  CAE_5 
REMARK    4  A    between atoms: CAM_11  and  CAN_12 
REMARK    5  A    between atoms: CAM_11  and  NAL_19 
REMARK    6  A    between atoms: CAN_12  and  CAP_13 
ROOT
HETATM    1  CAA AAA A1401      -7.192 -14.921 -52.804  1.00 64.07     0.024 C 
HETATM    2  CAB AAA A1401      -6.324 -14.123 -53.772  1.00 67.24     0.084 C 
HETATM    3  CAC AAA A1401      -4.850 -14.426 -53.533  1.00 67.04     0.024 C 
ENDROOT
BRANCH   2   4
HETATM    4  NAL AAA A1401      -6.649 -14.569 -55.111  1.00 64.63    -0.296 NA
BRANCH   4   5
HETATM    5  CAM AAA A1401      -5.618 -15.228 -55.890  1.00 66.87     0.157 C 
BRANCH   5   6
HETATM    6  CAN AAA A1401      -5.473 -14.575 -57.259  1.00 67.52     0.198 C 
HETATM    7  OAO AAA A1401      -6.634 -14.840 -58.055  1.00 65.32    -0.216 OA
BRANCH   6   8
HETATM    8  CAP AAA A1401      -4.243 -15.102 -57.896  1.00 68.74     0.012 A 
HETATM    9  CAW AAA A1401      -3.253 -15.662 -57.099  1.00 71.66     0.028 A 
HETATM   10  CAU AAA A1401      -2.090 -16.160 -57.673  1.00 75.98     0.156 A 
HETATM   11  CAS AAA A1401      -1.915 -16.098 -59.044  1.00 74.39     0.156 A 
HETATM   12  OAV AAA A1401      -1.125 -16.710 -56.886  1.00 78.60    -0.188 OA
HETATM   13  CAR AAA A1401      -2.902 -15.535 -59.845  1.00 75.68     0.029 A 
HETATM   14  OAT AAA A1401      -0.772 -16.588 -59.604  1.00 64.73    -0.188 OA
HETATM   15  CAQ AAA A1401      -4.067 -15.033 -59.273  1.00 71.58     0.001 A 
ENDBRANCH   6   8
ENDBRANCH   5   6
ENDBRANCH   4   5
ENDBRANCH   2   4
BRANCH   2  16
HETATM   16  CAD AAA A1401      -6.604 -12.621 -53.672  1.00 67.67     0.048 C 
BRANCH  16  17
HETATM   17  CAE AAA A1401      -5.614 -11.876 -52.798  1.00 65.89    -0.020 A 
HETATM   18  CAK AAA A1401      -5.637 -10.485 -52.770  1.00 66.37    -0.002 A 
HETATM   19  CAJ AAA A1401      -4.743  -9.785 -51.970  1.00 72.28     0.027 A 
HETATM   20  CAH AAA A1401      -3.829 -10.472 -51.179  1.00 74.86     0.131 A 
HETATM   21  CAG AAA A1401      -3.811 -11.863 -51.193  1.00 69.94     0.027 A 
HETATM   22  OAI AAA A1401      -2.954  -9.785 -50.392  1.00 77.74    -0.190 OA
HETATM   23  CAF AAA A1401      -4.705 -12.560 -51.996  1.00 65.48    -0.002 A 
ENDBRANCH  16  17
ENDBRANCH   2  16
TORSDOF 6
ENDMDL
MODEL 8
REMARK VINA RESULT:      -7.6      6.140      8.957
REMARK  6 active torsions:
REMARK  status: ('A' for Active; 'I' for Inactive)
REMARK    1  A    between atoms: CAB_2  and  NAL_19 
REMARK    2  A    between atoms: CAB_2  and  CAD_4 
REMARK    3  A    between atoms: CAD_4  and  CAE_5 
REMARK    4  A    between atoms: CAM_11  and  CAN_12 
REMARK    5  A    between atoms: CAM_11  and  NAL_19 
REMARK    6  A    between atoms: CAN_12  and  CAP_13 
ROOT
HETATM    1  CAA AAA A1401      -6.458 -12.600 -51.375  1.00 64.07     0.024 C 
HETATM    2  CAB AAA A1401      -5.429 -12.405 -52.484  1.00 67.24     0.084 C 
HETATM    3  CAC AAA A1401      -5.941 -11.403 -53.512  1.00 67.04     0.024 C 
ENDROOT
BRANCH   2   4
HETATM    4  NAL AAA A1401      -4.242 -11.838 -51.877  1.00 64.63    -0.296 NA
BRANCH   4   5
HETATM    5  CAM AAA A1401      -3.760 -12.411 -50.635  1.00 66.87     0.157 C 
BRANCH   5   6
HETATM    6  CAN AAA A1401      -2.274 -12.734 -50.728  1.00 67.52     0.198 C 
HETATM    7  OAO AAA A1401      -2.093 -14.099 -51.124  1.00 65.32    -0.216 OA
BRANCH   6   8
HETATM    8  CAP AAA A1401      -1.657 -12.462 -49.409  1.00 68.74     0.012 A 
HETATM    9  CAW AAA A1401      -0.289 -12.643 -49.251  1.00 71.66     0.028 A 
HETATM   10  CAU AAA A1401       0.312 -12.397 -48.023  1.00 75.98     0.156 A 
HETATM   11  CAS AAA A1401      -0.452 -11.972 -46.951  1.00 74.39     0.156 A 
HETATM   12  OAV AAA A1401       1.655 -12.573 -47.876  1.00 78.60    -0.188 OA
HETATM   13  CAR AAA A1401      -1.822 -11.793 -47.105  1.00 75.68     0.029 A 
HETATM   14  OAT AAA A1401       0.142 -11.731 -45.748  1.00 64.73    -0.188 OA
HETATM   15  CAQ AAA A1401      -2.429 -12.042 -48.333  1.00 71.58     0.001 A 
ENDBRANCH   6   8
ENDBRANCH   5   6
ENDBRANCH   4   5
ENDBRANCH   2   4
BRANCH   2  16
HETATM   16  CAD AAA A1401      -5.056 -13.735 -53.145  1.00 67.67     0.048 C 
BRANCH  16  17
HETATM   17  CAE AAA A1401      -5.834 -14.020 -54.415  1.00 65.89    -0.020 A 
HETATM   18  CAK AAA A1401      -7.219 -13.873 -54.417  1.00 66.37    -0.002 A 
HETATM   19  CAJ AAA A1401      -7.948 -14.123 -55.573  1.00 72.28     0.027 A 
HETATM   20  CAH AAA A1401      -7.297 -14.507 -56.739  1.00 74.86     0.131 A 
HETATM   21  CAG AAA A1401      -5.913 -14.644 -56.745  1.00 69.94     0.027 A 
HETATM   22  OAI AAA A1401      -8.013 -14.749 -57.872  1.00 77.74    -0.190 OA
HETATM   23  CAF AAA A1401      -5.186 -14.395 -55.588  1.00 65.48    -0.002 A 
ENDBRANCH  16  17
ENDBRANCH   2  16
TORSDOF 6
ENDMDL
MODEL 9
REMARK VINA RESULT:      -7.6      6.206      8.785
REMARK  6 active torsions:
REMARK  status: ('A' for Active; 'I' for Inactive)
REMARK    1  A    between atoms: CAB_2  and  NAL_19 
REMARK    2  A    between atoms: CAB_2  and  CAD_4 
REMARK    3  A    between atoms: CAD_4  and  CAE_5 
REMARK    4  A    between atoms: CAM_11  and  CAN_12 
REMARK    5  A    between atoms: CAM_11  and  NAL_19 
REMARK    6  A    between atoms: CAN_12  and  CAP_13 
ROOT
HETATM    1  CAA AAA A1401      -6.324 -10.716 -51.431  1.00 64.07     0.024 C 
HETATM    2  CAB AAA A1401      -5.277 -11.115 -52.466  1.00 67.24     0.084 C 
HETATM    3  CAC AAA A1401      -5.217 -10.082 -53.584  1.00 67.04     0.024 C 
ENDROOT
BRANCH   2   4
HETATM    4  NAL AAA A1401      -3.990 -11.112 -51.801  1.00 64.63    -0.296 NA
BRANCH   4   5
HETATM    5  CAM AAA A1401      -3.779 -12.031 -50.699  1.00 66.87     0.157 C 
BRANCH   5   6
HETATM    6  CAN AAA A1401      -2.367 -12.601 -50.730  1.00 67.52     0.198 C 
HETATM    7  OAO AAA A1401      -2.399 -13.972 -51.142  1.00 65.32    -0.216 OA
BRANCH   6   8
HETATM    8  CAP AAA A1401      -1.775 -12.450 -49.381  1.00 68.74     0.012 A 
HETATM    9  CAW AAA A1401      -0.536 -11.837 -49.248  1.00 71.66     0.028 A 
HETATM   10  CAU AAA A1401       0.040 -11.687 -47.992  1.00 75.98     0.156 A 
HETATM   11  CAS AAA A1401      -0.620 -12.152 -46.869  1.00 74.39     0.156 A 
HETATM   12  OAV AAA A1401       1.254 -11.082 -47.870  1.00 78.60    -0.188 OA
HETATM   13  CAR AAA A1401      -1.859 -12.769 -46.998  1.00 75.68     0.029 A 
HETATM   14  OAT AAA A1401      -0.052 -12.002 -45.638  1.00 64.73    -0.188 OA
HETATM   15  CAQ AAA A1401      -2.438 -12.923 -48.254  1.00 71.58     0.001 A 
ENDBRANCH   6   8
ENDBRANCH   5   6
ENDBRANCH   4   5
ENDBRANCH   2   4
BRANCH   2  16
HETATM   16  CAD AAA A1401      -5.540 -12.517 -53.021  1.00 67.67     0.048 C 
BRANCH  16  17
HETATM   17  CAE AAA A1401      -6.975 -12.978 -52.848  1.00 65.89    -0.020 A 
HETATM   18  CAK AAA A1401      -7.870 -12.844 -53.906  1.00 66.37    -0.002 A 
HETATM   19  CAJ AAA A1401      -9.186 -13.267 -53.769  1.00 72.28     0.027 A 
HETATM   20  CAH AAA A1401      -9.613 -13.843 -52.578  1.00 74.86     0.131 A 
HETATM   21  CAG AAA A1401      -8.719 -13.991 -51.522  1.00 69.94     0.027 A 
HETATM   22  OAI AAA A1401     -10.903 -14.260 -52.446  1.00 77.74    -0.190 OA
HETATM   23  CAF AAA A1401      -7.404 -13.565 -51.661  1.00 65.48    -0.002 A 
ENDBRANCH  16  17
ENDBRANCH   2  16
TORSDOF 6
ENDMDL
